version 2
run General-0-20220521-14:23:05-61910
attr configname General
attr datetime 20220521-14:23:05
attr experiment General
attr inifile kFatTreeAsync.ini
attr iterationvars ""
attr iterationvarsf ""
attr measurement ""
attr network KFatTreeAsync
attr processid 61910
attr repetition 0
attr replication #0
attr resultdir results
attr runnumber 0
attr seedset 0
param **.k 4
param **.client.numApps 1
param **.client.app[0].typename "\"ClientAppNoCoord\""
param **.client.app[0].localPort 100
param **.client.app[0].destPort 100
param **.client.app[0].messageLength 1250B
param **.client.app[0].sendInterval 0.5s
param **.client.app[0].destAddresses "moduleListByPath(\"**.replica[*]\")"
param **.replica[*].numApps 1
param **.replica[*].app[0].typename "\"ReplicaAppBroadcast\""
param **.replica[*].app[0].localPort 100
param **.replica[*].app[0].destPort 100
param **.replica[*].app[0].messageLength 1250B
param **.replica[*].app[0].destAddresses "moduleListByPath(\"**.replica[*]\", \"**.client\")"
param **.app[0].startTime 0s
param **.app[0].stopTime 30s
param **.app[0].delayLimit 3s
param **.app[0].joinLocalMulticastGroups true

vector 0 KFatTreeAsync.pod[0].aggregateSwitch[0].eth[0].encap encapPk:vector(packetBytes) ETV
attr interpolationmode none
attr source encapPk
attr title "packets encapsulated, vector(packetBytes)"
vector 1 KFatTreeAsync.pod[0].aggregateSwitch[0].eth[1].encap encapPk:vector(packetBytes) ETV
attr interpolationmode none
attr source encapPk
attr title "packets encapsulated, vector(packetBytes)"
vector 2 KFatTreeAsync.pod[0].aggregateSwitch[0].eth[2].encap encapPk:vector(packetBytes) ETV
attr interpolationmode none
attr source encapPk
attr title "packets encapsulated, vector(packetBytes)"
vector 3 KFatTreeAsync.pod[0].aggregateSwitch[0].eth[3].encap encapPk:vector(packetBytes) ETV
attr interpolationmode none
attr source encapPk
attr title "packets encapsulated, vector(packetBytes)"
vector 4 KFatTreeAsync.pod[0].aggregateSwitch[1].eth[0].encap encapPk:vector(packetBytes) ETV
attr interpolationmode none
attr source encapPk
attr title "packets encapsulated, vector(packetBytes)"
vector 5 KFatTreeAsync.pod[0].aggregateSwitch[1].eth[1].encap encapPk:vector(packetBytes) ETV
attr interpolationmode none
attr source encapPk
attr title "packets encapsulated, vector(packetBytes)"
vector 6 KFatTreeAsync.pod[0].aggregateSwitch[1].eth[2].encap encapPk:vector(packetBytes) ETV
attr interpolationmode none
attr source encapPk
attr title "packets encapsulated, vector(packetBytes)"
vector 7 KFatTreeAsync.pod[0].aggregateSwitch[1].eth[3].encap encapPk:vector(packetBytes) ETV
attr interpolationmode none
attr source encapPk
attr title "packets encapsulated, vector(packetBytes)"
vector 8 KFatTreeAsync.pod[0].edgeSwitch[0].eth[0].encap encapPk:vector(packetBytes) ETV
attr interpolationmode none
attr source encapPk
attr title "packets encapsulated, vector(packetBytes)"
vector 9 KFatTreeAsync.pod[0].edgeSwitch[0].eth[1].encap encapPk:vector(packetBytes) ETV
attr interpolationmode none
attr source encapPk
attr title "packets encapsulated, vector(packetBytes)"
vector 10 KFatTreeAsync.pod[0].edgeSwitch[0].eth[2].encap encapPk:vector(packetBytes) ETV
attr interpolationmode none
attr source encapPk
attr title "packets encapsulated, vector(packetBytes)"
vector 11 KFatTreeAsync.pod[0].edgeSwitch[0].eth[3].encap encapPk:vector(packetBytes) ETV
attr interpolationmode none
attr source encapPk
attr title "packets encapsulated, vector(packetBytes)"
vector 12 KFatTreeAsync.pod[0].edgeSwitch[1].eth[0].encap encapPk:vector(packetBytes) ETV
attr interpolationmode none
attr source encapPk
attr title "packets encapsulated, vector(packetBytes)"
vector 13 KFatTreeAsync.pod[0].edgeSwitch[1].eth[1].encap encapPk:vector(packetBytes) ETV
attr interpolationmode none
attr source encapPk
attr title "packets encapsulated, vector(packetBytes)"
vector 14 KFatTreeAsync.pod[0].edgeSwitch[1].eth[2].encap encapPk:vector(packetBytes) ETV
attr interpolationmode none
attr source encapPk
attr title "packets encapsulated, vector(packetBytes)"
vector 15 KFatTreeAsync.pod[0].edgeSwitch[1].eth[3].encap encapPk:vector(packetBytes) ETV
attr interpolationmode none
attr source encapPk
attr title "packets encapsulated, vector(packetBytes)"
vector 16 KFatTreeAsync.pod[1].aggregateSwitch[0].eth[0].encap encapPk:vector(packetBytes) ETV
attr interpolationmode none
attr source encapPk
attr title "packets encapsulated, vector(packetBytes)"
vector 17 KFatTreeAsync.pod[1].aggregateSwitch[0].eth[1].encap encapPk:vector(packetBytes) ETV
attr interpolationmode none
attr source encapPk
attr title "packets encapsulated, vector(packetBytes)"
vector 18 KFatTreeAsync.pod[1].aggregateSwitch[0].eth[2].encap encapPk:vector(packetBytes) ETV
attr interpolationmode none
attr source encapPk
attr title "packets encapsulated, vector(packetBytes)"
vector 19 KFatTreeAsync.pod[1].aggregateSwitch[0].eth[3].encap encapPk:vector(packetBytes) ETV
attr interpolationmode none
attr source encapPk
attr title "packets encapsulated, vector(packetBytes)"
vector 20 KFatTreeAsync.pod[1].aggregateSwitch[1].eth[0].encap encapPk:vector(packetBytes) ETV
attr interpolationmode none
attr source encapPk
attr title "packets encapsulated, vector(packetBytes)"
vector 21 KFatTreeAsync.pod[1].aggregateSwitch[1].eth[1].encap encapPk:vector(packetBytes) ETV
attr interpolationmode none
attr source encapPk
attr title "packets encapsulated, vector(packetBytes)"
vector 22 KFatTreeAsync.pod[1].aggregateSwitch[1].eth[2].encap encapPk:vector(packetBytes) ETV
attr interpolationmode none
attr source encapPk
attr title "packets encapsulated, vector(packetBytes)"
vector 23 KFatTreeAsync.pod[1].aggregateSwitch[1].eth[3].encap encapPk:vector(packetBytes) ETV
attr interpolationmode none
attr source encapPk
attr title "packets encapsulated, vector(packetBytes)"
vector 24 KFatTreeAsync.pod[1].edgeSwitch[0].eth[0].encap encapPk:vector(packetBytes) ETV
attr interpolationmode none
attr source encapPk
attr title "packets encapsulated, vector(packetBytes)"
vector 25 KFatTreeAsync.pod[1].edgeSwitch[0].eth[1].encap encapPk:vector(packetBytes) ETV
attr interpolationmode none
attr source encapPk
attr title "packets encapsulated, vector(packetBytes)"
vector 26 KFatTreeAsync.pod[1].edgeSwitch[0].eth[2].encap encapPk:vector(packetBytes) ETV
attr interpolationmode none
attr source encapPk
attr title "packets encapsulated, vector(packetBytes)"
vector 27 KFatTreeAsync.pod[1].edgeSwitch[0].eth[3].encap encapPk:vector(packetBytes) ETV
attr interpolationmode none
attr source encapPk
attr title "packets encapsulated, vector(packetBytes)"
vector 28 KFatTreeAsync.pod[1].edgeSwitch[1].eth[0].encap encapPk:vector(packetBytes) ETV
attr interpolationmode none
attr source encapPk
attr title "packets encapsulated, vector(packetBytes)"
vector 29 KFatTreeAsync.pod[1].edgeSwitch[1].eth[1].encap encapPk:vector(packetBytes) ETV
attr interpolationmode none
attr source encapPk
attr title "packets encapsulated, vector(packetBytes)"
vector 30 KFatTreeAsync.pod[1].edgeSwitch[1].eth[2].encap encapPk:vector(packetBytes) ETV
attr interpolationmode none
attr source encapPk
attr title "packets encapsulated, vector(packetBytes)"
vector 31 KFatTreeAsync.pod[1].edgeSwitch[1].eth[3].encap encapPk:vector(packetBytes) ETV
attr interpolationmode none
attr source encapPk
attr title "packets encapsulated, vector(packetBytes)"
vector 32 KFatTreeAsync.pod[2].aggregateSwitch[0].eth[0].encap encapPk:vector(packetBytes) ETV
attr interpolationmode none
attr source encapPk
attr title "packets encapsulated, vector(packetBytes)"
vector 33 KFatTreeAsync.pod[2].aggregateSwitch[0].eth[1].encap encapPk:vector(packetBytes) ETV
attr interpolationmode none
attr source encapPk
attr title "packets encapsulated, vector(packetBytes)"
vector 34 KFatTreeAsync.pod[2].aggregateSwitch[0].eth[2].encap encapPk:vector(packetBytes) ETV
attr interpolationmode none
attr source encapPk
attr title "packets encapsulated, vector(packetBytes)"
vector 35 KFatTreeAsync.pod[2].aggregateSwitch[0].eth[3].encap encapPk:vector(packetBytes) ETV
attr interpolationmode none
attr source encapPk
attr title "packets encapsulated, vector(packetBytes)"
vector 36 KFatTreeAsync.pod[2].aggregateSwitch[1].eth[0].encap encapPk:vector(packetBytes) ETV
attr interpolationmode none
attr source encapPk
attr title "packets encapsulated, vector(packetBytes)"
vector 37 KFatTreeAsync.pod[2].aggregateSwitch[1].eth[1].encap encapPk:vector(packetBytes) ETV
attr interpolationmode none
attr source encapPk
attr title "packets encapsulated, vector(packetBytes)"
vector 38 KFatTreeAsync.pod[2].aggregateSwitch[1].eth[2].encap encapPk:vector(packetBytes) ETV
attr interpolationmode none
attr source encapPk
attr title "packets encapsulated, vector(packetBytes)"
vector 39 KFatTreeAsync.pod[2].aggregateSwitch[1].eth[3].encap encapPk:vector(packetBytes) ETV
attr interpolationmode none
attr source encapPk
attr title "packets encapsulated, vector(packetBytes)"
vector 40 KFatTreeAsync.pod[2].edgeSwitch[0].eth[0].encap encapPk:vector(packetBytes) ETV
attr interpolationmode none
attr source encapPk
attr title "packets encapsulated, vector(packetBytes)"
vector 41 KFatTreeAsync.pod[2].edgeSwitch[0].eth[1].encap encapPk:vector(packetBytes) ETV
attr interpolationmode none
attr source encapPk
attr title "packets encapsulated, vector(packetBytes)"
vector 42 KFatTreeAsync.pod[2].edgeSwitch[0].eth[2].encap encapPk:vector(packetBytes) ETV
attr interpolationmode none
attr source encapPk
attr title "packets encapsulated, vector(packetBytes)"
vector 43 KFatTreeAsync.pod[2].edgeSwitch[0].eth[3].encap encapPk:vector(packetBytes) ETV
attr interpolationmode none
attr source encapPk
attr title "packets encapsulated, vector(packetBytes)"
vector 44 KFatTreeAsync.pod[2].edgeSwitch[1].eth[0].encap encapPk:vector(packetBytes) ETV
attr interpolationmode none
attr source encapPk
attr title "packets encapsulated, vector(packetBytes)"
vector 45 KFatTreeAsync.pod[2].edgeSwitch[1].eth[1].encap encapPk:vector(packetBytes) ETV
attr interpolationmode none
attr source encapPk
attr title "packets encapsulated, vector(packetBytes)"
vector 46 KFatTreeAsync.pod[2].edgeSwitch[1].eth[2].encap encapPk:vector(packetBytes) ETV
attr interpolationmode none
attr source encapPk
attr title "packets encapsulated, vector(packetBytes)"
vector 47 KFatTreeAsync.pod[2].edgeSwitch[1].eth[3].encap encapPk:vector(packetBytes) ETV
attr interpolationmode none
attr source encapPk
attr title "packets encapsulated, vector(packetBytes)"
vector 48 KFatTreeAsync.pod[3].aggregateSwitch[0].eth[0].encap encapPk:vector(packetBytes) ETV
attr interpolationmode none
attr source encapPk
attr title "packets encapsulated, vector(packetBytes)"
vector 49 KFatTreeAsync.pod[3].aggregateSwitch[0].eth[1].encap encapPk:vector(packetBytes) ETV
attr interpolationmode none
attr source encapPk
attr title "packets encapsulated, vector(packetBytes)"
vector 50 KFatTreeAsync.pod[3].aggregateSwitch[0].eth[2].encap encapPk:vector(packetBytes) ETV
attr interpolationmode none
attr source encapPk
attr title "packets encapsulated, vector(packetBytes)"
vector 51 KFatTreeAsync.pod[3].aggregateSwitch[0].eth[3].encap encapPk:vector(packetBytes) ETV
attr interpolationmode none
attr source encapPk
attr title "packets encapsulated, vector(packetBytes)"
vector 52 KFatTreeAsync.pod[3].aggregateSwitch[1].eth[0].encap encapPk:vector(packetBytes) ETV
attr interpolationmode none
attr source encapPk
attr title "packets encapsulated, vector(packetBytes)"
vector 53 KFatTreeAsync.pod[3].aggregateSwitch[1].eth[1].encap encapPk:vector(packetBytes) ETV
attr interpolationmode none
attr source encapPk
attr title "packets encapsulated, vector(packetBytes)"
vector 54 KFatTreeAsync.pod[3].aggregateSwitch[1].eth[2].encap encapPk:vector(packetBytes) ETV
attr interpolationmode none
attr source encapPk
attr title "packets encapsulated, vector(packetBytes)"
vector 55 KFatTreeAsync.pod[3].aggregateSwitch[1].eth[3].encap encapPk:vector(packetBytes) ETV
attr interpolationmode none
attr source encapPk
attr title "packets encapsulated, vector(packetBytes)"
vector 56 KFatTreeAsync.pod[3].edgeSwitch[0].eth[0].encap encapPk:vector(packetBytes) ETV
attr interpolationmode none
attr source encapPk
attr title "packets encapsulated, vector(packetBytes)"
vector 57 KFatTreeAsync.pod[3].edgeSwitch[0].eth[1].encap encapPk:vector(packetBytes) ETV
attr interpolationmode none
attr source encapPk
attr title "packets encapsulated, vector(packetBytes)"
vector 58 KFatTreeAsync.pod[3].edgeSwitch[0].eth[2].encap encapPk:vector(packetBytes) ETV
attr interpolationmode none
attr source encapPk
attr title "packets encapsulated, vector(packetBytes)"
vector 59 KFatTreeAsync.pod[3].edgeSwitch[0].eth[3].encap encapPk:vector(packetBytes) ETV
attr interpolationmode none
attr source encapPk
attr title "packets encapsulated, vector(packetBytes)"
vector 60 KFatTreeAsync.pod[3].edgeSwitch[1].eth[0].encap encapPk:vector(packetBytes) ETV
attr interpolationmode none
attr source encapPk
attr title "packets encapsulated, vector(packetBytes)"
vector 61 KFatTreeAsync.pod[3].edgeSwitch[1].eth[1].encap encapPk:vector(packetBytes) ETV
attr interpolationmode none
attr source encapPk
attr title "packets encapsulated, vector(packetBytes)"
vector 62 KFatTreeAsync.pod[3].edgeSwitch[1].eth[2].encap encapPk:vector(packetBytes) ETV
attr interpolationmode none
attr source encapPk
attr title "packets encapsulated, vector(packetBytes)"
vector 63 KFatTreeAsync.pod[3].edgeSwitch[1].eth[3].encap encapPk:vector(packetBytes) ETV
attr interpolationmode none
attr source encapPk
attr title "packets encapsulated, vector(packetBytes)"
vector 64 KFatTreeAsync.hosts.client.eth[0].encap encapPk:vector(packetBytes) ETV
attr interpolationmode none
attr source encapPk
attr title "packets encapsulated, vector(packetBytes)"
vector 65 KFatTreeAsync.hosts.replica[0].eth[0].encap encapPk:vector(packetBytes) ETV
attr interpolationmode none
attr source encapPk
attr title "packets encapsulated, vector(packetBytes)"
vector 66 KFatTreeAsync.hosts.replica[1].eth[0].encap encapPk:vector(packetBytes) ETV
attr interpolationmode none
attr source encapPk
attr title "packets encapsulated, vector(packetBytes)"
vector 67 KFatTreeAsync.hosts.replica[2].eth[0].encap encapPk:vector(packetBytes) ETV
attr interpolationmode none
attr source encapPk
attr title "packets encapsulated, vector(packetBytes)"
vector 68 KFatTreeAsync.hosts.replica[3].eth[0].encap encapPk:vector(packetBytes) ETV
attr interpolationmode none
attr source encapPk
attr title "packets encapsulated, vector(packetBytes)"
vector 69 KFatTreeAsync.hosts.replica[4].eth[0].encap encapPk:vector(packetBytes) ETV
attr interpolationmode none
attr source encapPk
attr title "packets encapsulated, vector(packetBytes)"
vector 70 KFatTreeAsync.hosts.replica[5].eth[0].encap encapPk:vector(packetBytes) ETV
attr interpolationmode none
attr source encapPk
attr title "packets encapsulated, vector(packetBytes)"
vector 71 KFatTreeAsync.hosts.replica[6].eth[0].encap encapPk:vector(packetBytes) ETV
attr interpolationmode none
attr source encapPk
attr title "packets encapsulated, vector(packetBytes)"
vector 72 KFatTreeAsync.hosts.replica[7].eth[0].encap encapPk:vector(packetBytes) ETV
attr interpolationmode none
attr source encapPk
attr title "packets encapsulated, vector(packetBytes)"
vector 73 KFatTreeAsync.hosts.replica[8].eth[0].encap encapPk:vector(packetBytes) ETV
attr interpolationmode none
attr source encapPk
attr title "packets encapsulated, vector(packetBytes)"
vector 74 KFatTreeAsync.hosts.replica[9].eth[0].encap encapPk:vector(packetBytes) ETV
attr interpolationmode none
attr source encapPk
attr title "packets encapsulated, vector(packetBytes)"
vector 75 KFatTreeAsync.hosts.replica[10].eth[0].encap encapPk:vector(packetBytes) ETV
attr interpolationmode none
attr source encapPk
attr title "packets encapsulated, vector(packetBytes)"
vector 76 KFatTreeAsync.hosts.replica[11].eth[0].encap encapPk:vector(packetBytes) ETV
attr interpolationmode none
attr source encapPk
attr title "packets encapsulated, vector(packetBytes)"
vector 77 KFatTreeAsync.hosts.replica[12].eth[0].encap encapPk:vector(packetBytes) ETV
attr interpolationmode none
attr source encapPk
attr title "packets encapsulated, vector(packetBytes)"
vector 78 KFatTreeAsync.hosts.replica[13].eth[0].encap encapPk:vector(packetBytes) ETV
attr interpolationmode none
attr source encapPk
attr title "packets encapsulated, vector(packetBytes)"
vector 79 KFatTreeAsync.hosts.replica[14].eth[0].encap encapPk:vector(packetBytes) ETV
attr interpolationmode none
attr source encapPk
attr title "packets encapsulated, vector(packetBytes)"
vector 80 KFatTreeAsync.hosts.client.udp packetSent:vector(packetBytes) ETV
attr interpolationmode none
attr source packetSent
attr title "packets sent, vector(packetBytes)"
vector 81 KFatTreeAsync.pod[0].aggregateSwitch[0].eth[0].mac packetReceivedFromUpper:vector(packetBytes) ETV
attr interpolationmode none
attr source packetReceivedFromUpper
attr title "packet bytes from higher layer, vector(packetBytes)"
vector 82 KFatTreeAsync.pod[0].aggregateSwitch[0].eth[0].mac.queue packetPushed:vector(packetBytes) ETV
attr interpolationmode none
attr title "packet pushed, vector(packetBytes)"
vector 83 KFatTreeAsync.pod[0].aggregateSwitch[0].eth[0].mac.queue queueLength:vector ETV
attr interpolationmode sample-hold
attr source "count(packetPushed) - count(packetPopped) - count(packetRemoved) - count(packetDropped)"
attr title "queue length, vector"
vector 84 KFatTreeAsync.pod[0].aggregateSwitch[0].eth[0].mac.queue packetPopped:vector(packetBytes) ETV
attr interpolationmode none
attr title "packet popped, vector(packetBytes)"
vector 85 KFatTreeAsync.pod[0].aggregateSwitch[0].eth[0].mac.queue queueingTime:vector ETV
attr interpolationmode none
attr source queueingTime(packetPopped)
attr title "queueing times, vector"
attr unit s
vector 86 KFatTreeAsync.pod[0].aggregateSwitch[0].eth[1].mac packetReceivedFromUpper:vector(packetBytes) ETV
attr interpolationmode none
attr source packetReceivedFromUpper
attr title "packet bytes from higher layer, vector(packetBytes)"
vector 87 KFatTreeAsync.pod[0].aggregateSwitch[0].eth[1].mac.queue packetPushed:vector(packetBytes) ETV
attr interpolationmode none
attr title "packet pushed, vector(packetBytes)"
vector 88 KFatTreeAsync.pod[0].aggregateSwitch[0].eth[1].mac.queue queueLength:vector ETV
attr interpolationmode sample-hold
attr source "count(packetPushed) - count(packetPopped) - count(packetRemoved) - count(packetDropped)"
attr title "queue length, vector"
vector 89 KFatTreeAsync.pod[0].aggregateSwitch[0].eth[1].mac.queue packetPopped:vector(packetBytes) ETV
attr interpolationmode none
attr title "packet popped, vector(packetBytes)"
vector 90 KFatTreeAsync.pod[0].aggregateSwitch[0].eth[1].mac.queue queueingTime:vector ETV
attr interpolationmode none
attr source queueingTime(packetPopped)
attr title "queueing times, vector"
attr unit s
vector 91 KFatTreeAsync.pod[0].aggregateSwitch[0].eth[2].mac packetReceivedFromUpper:vector(packetBytes) ETV
attr interpolationmode none
attr source packetReceivedFromUpper
attr title "packet bytes from higher layer, vector(packetBytes)"
vector 92 KFatTreeAsync.pod[0].aggregateSwitch[0].eth[2].mac.queue packetPushed:vector(packetBytes) ETV
attr interpolationmode none
attr title "packet pushed, vector(packetBytes)"
vector 93 KFatTreeAsync.pod[0].aggregateSwitch[0].eth[2].mac.queue queueLength:vector ETV
attr interpolationmode sample-hold
attr source "count(packetPushed) - count(packetPopped) - count(packetRemoved) - count(packetDropped)"
attr title "queue length, vector"
vector 94 KFatTreeAsync.pod[0].aggregateSwitch[0].eth[2].mac.queue packetPopped:vector(packetBytes) ETV
attr interpolationmode none
attr title "packet popped, vector(packetBytes)"
vector 95 KFatTreeAsync.pod[0].aggregateSwitch[0].eth[2].mac.queue queueingTime:vector ETV
attr interpolationmode none
attr source queueingTime(packetPopped)
attr title "queueing times, vector"
attr unit s
vector 96 KFatTreeAsync.pod[0].aggregateSwitch[0].eth[3].mac packetReceivedFromUpper:vector(packetBytes) ETV
attr interpolationmode none
attr source packetReceivedFromUpper
attr title "packet bytes from higher layer, vector(packetBytes)"
vector 97 KFatTreeAsync.pod[0].aggregateSwitch[0].eth[3].mac.queue packetPushed:vector(packetBytes) ETV
attr interpolationmode none
attr title "packet pushed, vector(packetBytes)"
vector 98 KFatTreeAsync.pod[0].aggregateSwitch[0].eth[3].mac.queue queueLength:vector ETV
attr interpolationmode sample-hold
attr source "count(packetPushed) - count(packetPopped) - count(packetRemoved) - count(packetDropped)"
attr title "queue length, vector"
vector 99 KFatTreeAsync.pod[0].aggregateSwitch[0].eth[3].mac.queue packetPopped:vector(packetBytes) ETV
attr interpolationmode none
attr title "packet popped, vector(packetBytes)"
vector 100 KFatTreeAsync.pod[0].aggregateSwitch[0].eth[3].mac.queue queueingTime:vector ETV
attr interpolationmode none
attr source queueingTime(packetPopped)
attr title "queueing times, vector"
attr unit s
vector 101 KFatTreeAsync.pod[0].aggregateSwitch[1].eth[0].mac packetReceivedFromUpper:vector(packetBytes) ETV
attr interpolationmode none
attr source packetReceivedFromUpper
attr title "packet bytes from higher layer, vector(packetBytes)"
vector 102 KFatTreeAsync.pod[0].aggregateSwitch[1].eth[0].mac.queue packetPushed:vector(packetBytes) ETV
attr interpolationmode none
attr title "packet pushed, vector(packetBytes)"
vector 103 KFatTreeAsync.pod[0].aggregateSwitch[1].eth[0].mac.queue queueLength:vector ETV
attr interpolationmode sample-hold
attr source "count(packetPushed) - count(packetPopped) - count(packetRemoved) - count(packetDropped)"
attr title "queue length, vector"
vector 104 KFatTreeAsync.pod[0].aggregateSwitch[1].eth[0].mac.queue packetPopped:vector(packetBytes) ETV
attr interpolationmode none
attr title "packet popped, vector(packetBytes)"
vector 105 KFatTreeAsync.pod[0].aggregateSwitch[1].eth[0].mac.queue queueingTime:vector ETV
attr interpolationmode none
attr source queueingTime(packetPopped)
attr title "queueing times, vector"
attr unit s
vector 106 KFatTreeAsync.pod[0].aggregateSwitch[1].eth[1].mac packetReceivedFromUpper:vector(packetBytes) ETV
attr interpolationmode none
attr source packetReceivedFromUpper
attr title "packet bytes from higher layer, vector(packetBytes)"
vector 107 KFatTreeAsync.pod[0].aggregateSwitch[1].eth[1].mac.queue packetPushed:vector(packetBytes) ETV
attr interpolationmode none
attr title "packet pushed, vector(packetBytes)"
vector 108 KFatTreeAsync.pod[0].aggregateSwitch[1].eth[1].mac.queue queueLength:vector ETV
attr interpolationmode sample-hold
attr source "count(packetPushed) - count(packetPopped) - count(packetRemoved) - count(packetDropped)"
attr title "queue length, vector"
vector 109 KFatTreeAsync.pod[0].aggregateSwitch[1].eth[1].mac.queue packetPopped:vector(packetBytes) ETV
attr interpolationmode none
attr title "packet popped, vector(packetBytes)"
vector 110 KFatTreeAsync.pod[0].aggregateSwitch[1].eth[1].mac.queue queueingTime:vector ETV
attr interpolationmode none
attr source queueingTime(packetPopped)
attr title "queueing times, vector"
attr unit s
vector 111 KFatTreeAsync.pod[0].aggregateSwitch[1].eth[2].mac packetReceivedFromUpper:vector(packetBytes) ETV
attr interpolationmode none
attr source packetReceivedFromUpper
attr title "packet bytes from higher layer, vector(packetBytes)"
vector 112 KFatTreeAsync.pod[0].aggregateSwitch[1].eth[2].mac.queue packetPushed:vector(packetBytes) ETV
attr interpolationmode none
attr title "packet pushed, vector(packetBytes)"
vector 113 KFatTreeAsync.pod[0].aggregateSwitch[1].eth[2].mac.queue queueLength:vector ETV
attr interpolationmode sample-hold
attr source "count(packetPushed) - count(packetPopped) - count(packetRemoved) - count(packetDropped)"
attr title "queue length, vector"
vector 114 KFatTreeAsync.pod[0].aggregateSwitch[1].eth[2].mac.queue packetPopped:vector(packetBytes) ETV
attr interpolationmode none
attr title "packet popped, vector(packetBytes)"
vector 115 KFatTreeAsync.pod[0].aggregateSwitch[1].eth[2].mac.queue queueingTime:vector ETV
attr interpolationmode none
attr source queueingTime(packetPopped)
attr title "queueing times, vector"
attr unit s
vector 116 KFatTreeAsync.pod[0].aggregateSwitch[1].eth[3].mac packetReceivedFromUpper:vector(packetBytes) ETV
attr interpolationmode none
attr source packetReceivedFromUpper
attr title "packet bytes from higher layer, vector(packetBytes)"
vector 117 KFatTreeAsync.pod[0].aggregateSwitch[1].eth[3].mac.queue packetPushed:vector(packetBytes) ETV
attr interpolationmode none
attr title "packet pushed, vector(packetBytes)"
vector 118 KFatTreeAsync.pod[0].aggregateSwitch[1].eth[3].mac.queue queueLength:vector ETV
attr interpolationmode sample-hold
attr source "count(packetPushed) - count(packetPopped) - count(packetRemoved) - count(packetDropped)"
attr title "queue length, vector"
vector 119 KFatTreeAsync.pod[0].aggregateSwitch[1].eth[3].mac.queue packetPopped:vector(packetBytes) ETV
attr interpolationmode none
attr title "packet popped, vector(packetBytes)"
vector 120 KFatTreeAsync.pod[0].aggregateSwitch[1].eth[3].mac.queue queueingTime:vector ETV
attr interpolationmode none
attr source queueingTime(packetPopped)
attr title "queueing times, vector"
attr unit s
vector 121 KFatTreeAsync.pod[0].edgeSwitch[0].eth[0].mac packetReceivedFromUpper:vector(packetBytes) ETV
attr interpolationmode none
attr source packetReceivedFromUpper
attr title "packet bytes from higher layer, vector(packetBytes)"
vector 122 KFatTreeAsync.pod[0].edgeSwitch[0].eth[0].mac.queue packetPushed:vector(packetBytes) ETV
attr interpolationmode none
attr title "packet pushed, vector(packetBytes)"
vector 123 KFatTreeAsync.pod[0].edgeSwitch[0].eth[0].mac.queue queueLength:vector ETV
attr interpolationmode sample-hold
attr source "count(packetPushed) - count(packetPopped) - count(packetRemoved) - count(packetDropped)"
attr title "queue length, vector"
vector 124 KFatTreeAsync.pod[0].edgeSwitch[0].eth[0].mac.queue packetPopped:vector(packetBytes) ETV
attr interpolationmode none
attr title "packet popped, vector(packetBytes)"
vector 125 KFatTreeAsync.pod[0].edgeSwitch[0].eth[0].mac.queue queueingTime:vector ETV
attr interpolationmode none
attr source queueingTime(packetPopped)
attr title "queueing times, vector"
attr unit s
vector 126 KFatTreeAsync.pod[0].edgeSwitch[0].eth[1].mac packetReceivedFromUpper:vector(packetBytes) ETV
attr interpolationmode none
attr source packetReceivedFromUpper
attr title "packet bytes from higher layer, vector(packetBytes)"
vector 127 KFatTreeAsync.pod[0].edgeSwitch[0].eth[1].mac.queue packetPushed:vector(packetBytes) ETV
attr interpolationmode none
attr title "packet pushed, vector(packetBytes)"
vector 128 KFatTreeAsync.pod[0].edgeSwitch[0].eth[1].mac.queue queueLength:vector ETV
attr interpolationmode sample-hold
attr source "count(packetPushed) - count(packetPopped) - count(packetRemoved) - count(packetDropped)"
attr title "queue length, vector"
vector 129 KFatTreeAsync.pod[0].edgeSwitch[0].eth[1].mac.queue packetPopped:vector(packetBytes) ETV
attr interpolationmode none
attr title "packet popped, vector(packetBytes)"
vector 130 KFatTreeAsync.pod[0].edgeSwitch[0].eth[1].mac.queue queueingTime:vector ETV
attr interpolationmode none
attr source queueingTime(packetPopped)
attr title "queueing times, vector"
attr unit s
vector 131 KFatTreeAsync.pod[0].edgeSwitch[0].eth[2].mac packetReceivedFromUpper:vector(packetBytes) ETV
attr interpolationmode none
attr source packetReceivedFromUpper
attr title "packet bytes from higher layer, vector(packetBytes)"
vector 132 KFatTreeAsync.pod[0].edgeSwitch[0].eth[2].mac.queue packetPushed:vector(packetBytes) ETV
attr interpolationmode none
attr title "packet pushed, vector(packetBytes)"
vector 133 KFatTreeAsync.pod[0].edgeSwitch[0].eth[2].mac.queue queueLength:vector ETV
attr interpolationmode sample-hold
attr source "count(packetPushed) - count(packetPopped) - count(packetRemoved) - count(packetDropped)"
attr title "queue length, vector"
vector 134 KFatTreeAsync.pod[0].edgeSwitch[0].eth[2].mac.queue packetPopped:vector(packetBytes) ETV
attr interpolationmode none
attr title "packet popped, vector(packetBytes)"
vector 135 KFatTreeAsync.pod[0].edgeSwitch[0].eth[2].mac.queue queueingTime:vector ETV
attr interpolationmode none
attr source queueingTime(packetPopped)
attr title "queueing times, vector"
attr unit s
vector 136 KFatTreeAsync.pod[0].edgeSwitch[0].eth[3].mac packetReceivedFromUpper:vector(packetBytes) ETV
attr interpolationmode none
attr source packetReceivedFromUpper
attr title "packet bytes from higher layer, vector(packetBytes)"
vector 137 KFatTreeAsync.pod[0].edgeSwitch[0].eth[3].mac.queue packetPushed:vector(packetBytes) ETV
attr interpolationmode none
attr title "packet pushed, vector(packetBytes)"
vector 138 KFatTreeAsync.pod[0].edgeSwitch[0].eth[3].mac.queue queueLength:vector ETV
attr interpolationmode sample-hold
attr source "count(packetPushed) - count(packetPopped) - count(packetRemoved) - count(packetDropped)"
attr title "queue length, vector"
vector 139 KFatTreeAsync.pod[0].edgeSwitch[0].eth[3].mac.queue packetPopped:vector(packetBytes) ETV
attr interpolationmode none
attr title "packet popped, vector(packetBytes)"
vector 140 KFatTreeAsync.pod[0].edgeSwitch[0].eth[3].mac.queue queueingTime:vector ETV
attr interpolationmode none
attr source queueingTime(packetPopped)
attr title "queueing times, vector"
attr unit s
vector 141 KFatTreeAsync.pod[0].edgeSwitch[1].eth[0].mac packetReceivedFromUpper:vector(packetBytes) ETV
attr interpolationmode none
attr source packetReceivedFromUpper
attr title "packet bytes from higher layer, vector(packetBytes)"
vector 142 KFatTreeAsync.pod[0].edgeSwitch[1].eth[0].mac.queue packetPushed:vector(packetBytes) ETV
attr interpolationmode none
attr title "packet pushed, vector(packetBytes)"
vector 143 KFatTreeAsync.pod[0].edgeSwitch[1].eth[0].mac.queue queueLength:vector ETV
attr interpolationmode sample-hold
attr source "count(packetPushed) - count(packetPopped) - count(packetRemoved) - count(packetDropped)"
attr title "queue length, vector"
vector 144 KFatTreeAsync.pod[0].edgeSwitch[1].eth[0].mac.queue packetPopped:vector(packetBytes) ETV
attr interpolationmode none
attr title "packet popped, vector(packetBytes)"
vector 145 KFatTreeAsync.pod[0].edgeSwitch[1].eth[0].mac.queue queueingTime:vector ETV
attr interpolationmode none
attr source queueingTime(packetPopped)
attr title "queueing times, vector"
attr unit s
vector 146 KFatTreeAsync.pod[0].edgeSwitch[1].eth[1].mac packetReceivedFromUpper:vector(packetBytes) ETV
attr interpolationmode none
attr source packetReceivedFromUpper
attr title "packet bytes from higher layer, vector(packetBytes)"
vector 147 KFatTreeAsync.pod[0].edgeSwitch[1].eth[1].mac.queue packetPushed:vector(packetBytes) ETV
attr interpolationmode none
attr title "packet pushed, vector(packetBytes)"
vector 148 KFatTreeAsync.pod[0].edgeSwitch[1].eth[1].mac.queue queueLength:vector ETV
attr interpolationmode sample-hold
attr source "count(packetPushed) - count(packetPopped) - count(packetRemoved) - count(packetDropped)"
attr title "queue length, vector"
vector 149 KFatTreeAsync.pod[0].edgeSwitch[1].eth[1].mac.queue packetPopped:vector(packetBytes) ETV
attr interpolationmode none
attr title "packet popped, vector(packetBytes)"
vector 150 KFatTreeAsync.pod[0].edgeSwitch[1].eth[1].mac.queue queueingTime:vector ETV
attr interpolationmode none
attr source queueingTime(packetPopped)
attr title "queueing times, vector"
attr unit s
vector 151 KFatTreeAsync.pod[0].edgeSwitch[1].eth[2].mac packetReceivedFromUpper:vector(packetBytes) ETV
attr interpolationmode none
attr source packetReceivedFromUpper
attr title "packet bytes from higher layer, vector(packetBytes)"
vector 152 KFatTreeAsync.pod[0].edgeSwitch[1].eth[2].mac.queue packetPushed:vector(packetBytes) ETV
attr interpolationmode none
attr title "packet pushed, vector(packetBytes)"
vector 153 KFatTreeAsync.pod[0].edgeSwitch[1].eth[2].mac.queue queueLength:vector ETV
attr interpolationmode sample-hold
attr source "count(packetPushed) - count(packetPopped) - count(packetRemoved) - count(packetDropped)"
attr title "queue length, vector"
vector 154 KFatTreeAsync.pod[0].edgeSwitch[1].eth[2].mac.queue packetPopped:vector(packetBytes) ETV
attr interpolationmode none
attr title "packet popped, vector(packetBytes)"
vector 155 KFatTreeAsync.pod[0].edgeSwitch[1].eth[2].mac.queue queueingTime:vector ETV
attr interpolationmode none
attr source queueingTime(packetPopped)
attr title "queueing times, vector"
attr unit s
vector 156 KFatTreeAsync.pod[0].edgeSwitch[1].eth[3].mac packetReceivedFromUpper:vector(packetBytes) ETV
attr interpolationmode none
attr source packetReceivedFromUpper
attr title "packet bytes from higher layer, vector(packetBytes)"
vector 157 KFatTreeAsync.pod[0].edgeSwitch[1].eth[3].mac.queue packetPushed:vector(packetBytes) ETV
attr interpolationmode none
attr title "packet pushed, vector(packetBytes)"
vector 158 KFatTreeAsync.pod[0].edgeSwitch[1].eth[3].mac.queue queueLength:vector ETV
attr interpolationmode sample-hold
attr source "count(packetPushed) - count(packetPopped) - count(packetRemoved) - count(packetDropped)"
attr title "queue length, vector"
vector 159 KFatTreeAsync.pod[0].edgeSwitch[1].eth[3].mac.queue packetPopped:vector(packetBytes) ETV
attr interpolationmode none
attr title "packet popped, vector(packetBytes)"
vector 160 KFatTreeAsync.pod[0].edgeSwitch[1].eth[3].mac.queue queueingTime:vector ETV
attr interpolationmode none
attr source queueingTime(packetPopped)
attr title "queueing times, vector"
attr unit s
vector 161 KFatTreeAsync.pod[1].aggregateSwitch[0].eth[0].mac packetReceivedFromUpper:vector(packetBytes) ETV
attr interpolationmode none
attr source packetReceivedFromUpper
attr title "packet bytes from higher layer, vector(packetBytes)"
vector 162 KFatTreeAsync.pod[1].aggregateSwitch[0].eth[0].mac.queue packetPushed:vector(packetBytes) ETV
attr interpolationmode none
attr title "packet pushed, vector(packetBytes)"
vector 163 KFatTreeAsync.pod[1].aggregateSwitch[0].eth[0].mac.queue queueLength:vector ETV
attr interpolationmode sample-hold
attr source "count(packetPushed) - count(packetPopped) - count(packetRemoved) - count(packetDropped)"
attr title "queue length, vector"
vector 164 KFatTreeAsync.pod[1].aggregateSwitch[0].eth[0].mac.queue packetPopped:vector(packetBytes) ETV
attr interpolationmode none
attr title "packet popped, vector(packetBytes)"
vector 165 KFatTreeAsync.pod[1].aggregateSwitch[0].eth[0].mac.queue queueingTime:vector ETV
attr interpolationmode none
attr source queueingTime(packetPopped)
attr title "queueing times, vector"
attr unit s
vector 166 KFatTreeAsync.pod[1].aggregateSwitch[0].eth[1].mac packetReceivedFromUpper:vector(packetBytes) ETV
attr interpolationmode none
attr source packetReceivedFromUpper
attr title "packet bytes from higher layer, vector(packetBytes)"
vector 167 KFatTreeAsync.pod[1].aggregateSwitch[0].eth[1].mac.queue packetPushed:vector(packetBytes) ETV
attr interpolationmode none
attr title "packet pushed, vector(packetBytes)"
vector 168 KFatTreeAsync.pod[1].aggregateSwitch[0].eth[1].mac.queue queueLength:vector ETV
attr interpolationmode sample-hold
attr source "count(packetPushed) - count(packetPopped) - count(packetRemoved) - count(packetDropped)"
attr title "queue length, vector"
vector 169 KFatTreeAsync.pod[1].aggregateSwitch[0].eth[1].mac.queue packetPopped:vector(packetBytes) ETV
attr interpolationmode none
attr title "packet popped, vector(packetBytes)"
vector 170 KFatTreeAsync.pod[1].aggregateSwitch[0].eth[1].mac.queue queueingTime:vector ETV
attr interpolationmode none
attr source queueingTime(packetPopped)
attr title "queueing times, vector"
attr unit s
vector 171 KFatTreeAsync.pod[1].aggregateSwitch[0].eth[2].mac packetReceivedFromUpper:vector(packetBytes) ETV
attr interpolationmode none
attr source packetReceivedFromUpper
attr title "packet bytes from higher layer, vector(packetBytes)"
vector 172 KFatTreeAsync.pod[1].aggregateSwitch[0].eth[2].mac.queue packetPushed:vector(packetBytes) ETV
attr interpolationmode none
attr title "packet pushed, vector(packetBytes)"
vector 173 KFatTreeAsync.pod[1].aggregateSwitch[0].eth[2].mac.queue queueLength:vector ETV
attr interpolationmode sample-hold
attr source "count(packetPushed) - count(packetPopped) - count(packetRemoved) - count(packetDropped)"
attr title "queue length, vector"
vector 174 KFatTreeAsync.pod[1].aggregateSwitch[0].eth[2].mac.queue packetPopped:vector(packetBytes) ETV
attr interpolationmode none
attr title "packet popped, vector(packetBytes)"
vector 175 KFatTreeAsync.pod[1].aggregateSwitch[0].eth[2].mac.queue queueingTime:vector ETV
attr interpolationmode none
attr source queueingTime(packetPopped)
attr title "queueing times, vector"
attr unit s
vector 176 KFatTreeAsync.pod[1].aggregateSwitch[0].eth[3].mac packetReceivedFromUpper:vector(packetBytes) ETV
attr interpolationmode none
attr source packetReceivedFromUpper
attr title "packet bytes from higher layer, vector(packetBytes)"
vector 177 KFatTreeAsync.pod[1].aggregateSwitch[0].eth[3].mac.queue packetPushed:vector(packetBytes) ETV
attr interpolationmode none
attr title "packet pushed, vector(packetBytes)"
vector 178 KFatTreeAsync.pod[1].aggregateSwitch[0].eth[3].mac.queue queueLength:vector ETV
attr interpolationmode sample-hold
attr source "count(packetPushed) - count(packetPopped) - count(packetRemoved) - count(packetDropped)"
attr title "queue length, vector"
vector 179 KFatTreeAsync.pod[1].aggregateSwitch[0].eth[3].mac.queue packetPopped:vector(packetBytes) ETV
attr interpolationmode none
attr title "packet popped, vector(packetBytes)"
vector 180 KFatTreeAsync.pod[1].aggregateSwitch[0].eth[3].mac.queue queueingTime:vector ETV
attr interpolationmode none
attr source queueingTime(packetPopped)
attr title "queueing times, vector"
attr unit s
vector 181 KFatTreeAsync.pod[1].aggregateSwitch[1].eth[0].mac packetReceivedFromUpper:vector(packetBytes) ETV
attr interpolationmode none
attr source packetReceivedFromUpper
attr title "packet bytes from higher layer, vector(packetBytes)"
vector 182 KFatTreeAsync.pod[1].aggregateSwitch[1].eth[0].mac.queue packetPushed:vector(packetBytes) ETV
attr interpolationmode none
attr title "packet pushed, vector(packetBytes)"
vector 183 KFatTreeAsync.pod[1].aggregateSwitch[1].eth[0].mac.queue queueLength:vector ETV
attr interpolationmode sample-hold
attr source "count(packetPushed) - count(packetPopped) - count(packetRemoved) - count(packetDropped)"
attr title "queue length, vector"
vector 184 KFatTreeAsync.pod[1].aggregateSwitch[1].eth[0].mac.queue packetPopped:vector(packetBytes) ETV
attr interpolationmode none
attr title "packet popped, vector(packetBytes)"
vector 185 KFatTreeAsync.pod[1].aggregateSwitch[1].eth[0].mac.queue queueingTime:vector ETV
attr interpolationmode none
attr source queueingTime(packetPopped)
attr title "queueing times, vector"
attr unit s
vector 186 KFatTreeAsync.pod[1].aggregateSwitch[1].eth[1].mac packetReceivedFromUpper:vector(packetBytes) ETV
attr interpolationmode none
attr source packetReceivedFromUpper
attr title "packet bytes from higher layer, vector(packetBytes)"
vector 187 KFatTreeAsync.pod[1].aggregateSwitch[1].eth[1].mac.queue packetPushed:vector(packetBytes) ETV
attr interpolationmode none
attr title "packet pushed, vector(packetBytes)"
vector 188 KFatTreeAsync.pod[1].aggregateSwitch[1].eth[1].mac.queue queueLength:vector ETV
attr interpolationmode sample-hold
attr source "count(packetPushed) - count(packetPopped) - count(packetRemoved) - count(packetDropped)"
attr title "queue length, vector"
vector 189 KFatTreeAsync.pod[1].aggregateSwitch[1].eth[1].mac.queue packetPopped:vector(packetBytes) ETV
attr interpolationmode none
attr title "packet popped, vector(packetBytes)"
vector 190 KFatTreeAsync.pod[1].aggregateSwitch[1].eth[1].mac.queue queueingTime:vector ETV
attr interpolationmode none
attr source queueingTime(packetPopped)
attr title "queueing times, vector"
attr unit s
vector 191 KFatTreeAsync.pod[1].aggregateSwitch[1].eth[2].mac packetReceivedFromUpper:vector(packetBytes) ETV
attr interpolationmode none
attr source packetReceivedFromUpper
attr title "packet bytes from higher layer, vector(packetBytes)"
vector 192 KFatTreeAsync.pod[1].aggregateSwitch[1].eth[2].mac.queue packetPushed:vector(packetBytes) ETV
attr interpolationmode none
attr title "packet pushed, vector(packetBytes)"
vector 193 KFatTreeAsync.pod[1].aggregateSwitch[1].eth[2].mac.queue queueLength:vector ETV
attr interpolationmode sample-hold
attr source "count(packetPushed) - count(packetPopped) - count(packetRemoved) - count(packetDropped)"
attr title "queue length, vector"
vector 194 KFatTreeAsync.pod[1].aggregateSwitch[1].eth[2].mac.queue packetPopped:vector(packetBytes) ETV
attr interpolationmode none
attr title "packet popped, vector(packetBytes)"
vector 195 KFatTreeAsync.pod[1].aggregateSwitch[1].eth[2].mac.queue queueingTime:vector ETV
attr interpolationmode none
attr source queueingTime(packetPopped)
attr title "queueing times, vector"
attr unit s
vector 196 KFatTreeAsync.pod[1].aggregateSwitch[1].eth[3].mac packetReceivedFromUpper:vector(packetBytes) ETV
attr interpolationmode none
attr source packetReceivedFromUpper
attr title "packet bytes from higher layer, vector(packetBytes)"
vector 197 KFatTreeAsync.pod[1].aggregateSwitch[1].eth[3].mac.queue packetPushed:vector(packetBytes) ETV
attr interpolationmode none
attr title "packet pushed, vector(packetBytes)"
vector 198 KFatTreeAsync.pod[1].aggregateSwitch[1].eth[3].mac.queue queueLength:vector ETV
attr interpolationmode sample-hold
attr source "count(packetPushed) - count(packetPopped) - count(packetRemoved) - count(packetDropped)"
attr title "queue length, vector"
vector 199 KFatTreeAsync.pod[1].aggregateSwitch[1].eth[3].mac.queue packetPopped:vector(packetBytes) ETV
attr interpolationmode none
attr title "packet popped, vector(packetBytes)"
vector 200 KFatTreeAsync.pod[1].aggregateSwitch[1].eth[3].mac.queue queueingTime:vector ETV
attr interpolationmode none
attr source queueingTime(packetPopped)
attr title "queueing times, vector"
attr unit s
vector 201 KFatTreeAsync.pod[1].edgeSwitch[0].eth[0].mac packetReceivedFromUpper:vector(packetBytes) ETV
attr interpolationmode none
attr source packetReceivedFromUpper
attr title "packet bytes from higher layer, vector(packetBytes)"
vector 202 KFatTreeAsync.pod[1].edgeSwitch[0].eth[0].mac.queue packetPushed:vector(packetBytes) ETV
attr interpolationmode none
attr title "packet pushed, vector(packetBytes)"
vector 203 KFatTreeAsync.pod[1].edgeSwitch[0].eth[0].mac.queue queueLength:vector ETV
attr interpolationmode sample-hold
attr source "count(packetPushed) - count(packetPopped) - count(packetRemoved) - count(packetDropped)"
attr title "queue length, vector"
vector 204 KFatTreeAsync.pod[1].edgeSwitch[0].eth[0].mac.queue packetPopped:vector(packetBytes) ETV
attr interpolationmode none
attr title "packet popped, vector(packetBytes)"
vector 205 KFatTreeAsync.pod[1].edgeSwitch[0].eth[0].mac.queue queueingTime:vector ETV
attr interpolationmode none
attr source queueingTime(packetPopped)
attr title "queueing times, vector"
attr unit s
vector 206 KFatTreeAsync.pod[1].edgeSwitch[0].eth[1].mac packetReceivedFromUpper:vector(packetBytes) ETV
attr interpolationmode none
attr source packetReceivedFromUpper
attr title "packet bytes from higher layer, vector(packetBytes)"
vector 207 KFatTreeAsync.pod[1].edgeSwitch[0].eth[1].mac.queue packetPushed:vector(packetBytes) ETV
attr interpolationmode none
attr title "packet pushed, vector(packetBytes)"
vector 208 KFatTreeAsync.pod[1].edgeSwitch[0].eth[1].mac.queue queueLength:vector ETV
attr interpolationmode sample-hold
attr source "count(packetPushed) - count(packetPopped) - count(packetRemoved) - count(packetDropped)"
attr title "queue length, vector"
vector 209 KFatTreeAsync.pod[1].edgeSwitch[0].eth[1].mac.queue packetPopped:vector(packetBytes) ETV
attr interpolationmode none
attr title "packet popped, vector(packetBytes)"
vector 210 KFatTreeAsync.pod[1].edgeSwitch[0].eth[1].mac.queue queueingTime:vector ETV
attr interpolationmode none
attr source queueingTime(packetPopped)
attr title "queueing times, vector"
attr unit s
vector 211 KFatTreeAsync.pod[1].edgeSwitch[0].eth[2].mac packetReceivedFromUpper:vector(packetBytes) ETV
attr interpolationmode none
attr source packetReceivedFromUpper
attr title "packet bytes from higher layer, vector(packetBytes)"
vector 212 KFatTreeAsync.pod[1].edgeSwitch[0].eth[2].mac.queue packetPushed:vector(packetBytes) ETV
attr interpolationmode none
attr title "packet pushed, vector(packetBytes)"
vector 213 KFatTreeAsync.pod[1].edgeSwitch[0].eth[2].mac.queue queueLength:vector ETV
attr interpolationmode sample-hold
attr source "count(packetPushed) - count(packetPopped) - count(packetRemoved) - count(packetDropped)"
attr title "queue length, vector"
vector 214 KFatTreeAsync.pod[1].edgeSwitch[0].eth[2].mac.queue packetPopped:vector(packetBytes) ETV
attr interpolationmode none
attr title "packet popped, vector(packetBytes)"
vector 215 KFatTreeAsync.pod[1].edgeSwitch[0].eth[2].mac.queue queueingTime:vector ETV
attr interpolationmode none
attr source queueingTime(packetPopped)
attr title "queueing times, vector"
attr unit s
vector 216 KFatTreeAsync.pod[1].edgeSwitch[0].eth[3].mac packetReceivedFromUpper:vector(packetBytes) ETV
attr interpolationmode none
attr source packetReceivedFromUpper
attr title "packet bytes from higher layer, vector(packetBytes)"
vector 217 KFatTreeAsync.pod[1].edgeSwitch[0].eth[3].mac.queue packetPushed:vector(packetBytes) ETV
attr interpolationmode none
attr title "packet pushed, vector(packetBytes)"
vector 218 KFatTreeAsync.pod[1].edgeSwitch[0].eth[3].mac.queue queueLength:vector ETV
attr interpolationmode sample-hold
attr source "count(packetPushed) - count(packetPopped) - count(packetRemoved) - count(packetDropped)"
attr title "queue length, vector"
vector 219 KFatTreeAsync.pod[1].edgeSwitch[0].eth[3].mac.queue packetPopped:vector(packetBytes) ETV
attr interpolationmode none
attr title "packet popped, vector(packetBytes)"
vector 220 KFatTreeAsync.pod[1].edgeSwitch[0].eth[3].mac.queue queueingTime:vector ETV
attr interpolationmode none
attr source queueingTime(packetPopped)
attr title "queueing times, vector"
attr unit s
vector 221 KFatTreeAsync.pod[1].edgeSwitch[1].eth[0].mac packetReceivedFromUpper:vector(packetBytes) ETV
attr interpolationmode none
attr source packetReceivedFromUpper
attr title "packet bytes from higher layer, vector(packetBytes)"
vector 222 KFatTreeAsync.pod[1].edgeSwitch[1].eth[0].mac.queue packetPushed:vector(packetBytes) ETV
attr interpolationmode none
attr title "packet pushed, vector(packetBytes)"
vector 223 KFatTreeAsync.pod[1].edgeSwitch[1].eth[0].mac.queue queueLength:vector ETV
attr interpolationmode sample-hold
attr source "count(packetPushed) - count(packetPopped) - count(packetRemoved) - count(packetDropped)"
attr title "queue length, vector"
vector 224 KFatTreeAsync.pod[1].edgeSwitch[1].eth[0].mac.queue packetPopped:vector(packetBytes) ETV
attr interpolationmode none
attr title "packet popped, vector(packetBytes)"
vector 225 KFatTreeAsync.pod[1].edgeSwitch[1].eth[0].mac.queue queueingTime:vector ETV
attr interpolationmode none
attr source queueingTime(packetPopped)
attr title "queueing times, vector"
attr unit s
vector 226 KFatTreeAsync.pod[1].edgeSwitch[1].eth[1].mac packetReceivedFromUpper:vector(packetBytes) ETV
attr interpolationmode none
attr source packetReceivedFromUpper
attr title "packet bytes from higher layer, vector(packetBytes)"
vector 227 KFatTreeAsync.pod[1].edgeSwitch[1].eth[1].mac.queue packetPushed:vector(packetBytes) ETV
attr interpolationmode none
attr title "packet pushed, vector(packetBytes)"
vector 228 KFatTreeAsync.pod[1].edgeSwitch[1].eth[1].mac.queue queueLength:vector ETV
attr interpolationmode sample-hold
attr source "count(packetPushed) - count(packetPopped) - count(packetRemoved) - count(packetDropped)"
attr title "queue length, vector"
vector 229 KFatTreeAsync.pod[1].edgeSwitch[1].eth[1].mac.queue packetPopped:vector(packetBytes) ETV
attr interpolationmode none
attr title "packet popped, vector(packetBytes)"
vector 230 KFatTreeAsync.pod[1].edgeSwitch[1].eth[1].mac.queue queueingTime:vector ETV
attr interpolationmode none
attr source queueingTime(packetPopped)
attr title "queueing times, vector"
attr unit s
vector 231 KFatTreeAsync.pod[1].edgeSwitch[1].eth[2].mac packetReceivedFromUpper:vector(packetBytes) ETV
attr interpolationmode none
attr source packetReceivedFromUpper
attr title "packet bytes from higher layer, vector(packetBytes)"
vector 232 KFatTreeAsync.pod[1].edgeSwitch[1].eth[2].mac.queue packetPushed:vector(packetBytes) ETV
attr interpolationmode none
attr title "packet pushed, vector(packetBytes)"
vector 233 KFatTreeAsync.pod[1].edgeSwitch[1].eth[2].mac.queue queueLength:vector ETV
attr interpolationmode sample-hold
attr source "count(packetPushed) - count(packetPopped) - count(packetRemoved) - count(packetDropped)"
attr title "queue length, vector"
vector 234 KFatTreeAsync.pod[1].edgeSwitch[1].eth[2].mac.queue packetPopped:vector(packetBytes) ETV
attr interpolationmode none
attr title "packet popped, vector(packetBytes)"
vector 235 KFatTreeAsync.pod[1].edgeSwitch[1].eth[2].mac.queue queueingTime:vector ETV
attr interpolationmode none
attr source queueingTime(packetPopped)
attr title "queueing times, vector"
attr unit s
vector 236 KFatTreeAsync.pod[1].edgeSwitch[1].eth[3].mac packetReceivedFromUpper:vector(packetBytes) ETV
attr interpolationmode none
attr source packetReceivedFromUpper
attr title "packet bytes from higher layer, vector(packetBytes)"
vector 237 KFatTreeAsync.pod[1].edgeSwitch[1].eth[3].mac.queue packetPushed:vector(packetBytes) ETV
attr interpolationmode none
attr title "packet pushed, vector(packetBytes)"
vector 238 KFatTreeAsync.pod[1].edgeSwitch[1].eth[3].mac.queue queueLength:vector ETV
attr interpolationmode sample-hold
attr source "count(packetPushed) - count(packetPopped) - count(packetRemoved) - count(packetDropped)"
attr title "queue length, vector"
vector 239 KFatTreeAsync.pod[1].edgeSwitch[1].eth[3].mac.queue packetPopped:vector(packetBytes) ETV
attr interpolationmode none
attr title "packet popped, vector(packetBytes)"
vector 240 KFatTreeAsync.pod[1].edgeSwitch[1].eth[3].mac.queue queueingTime:vector ETV
attr interpolationmode none
attr source queueingTime(packetPopped)
attr title "queueing times, vector"
attr unit s
vector 241 KFatTreeAsync.pod[2].aggregateSwitch[0].eth[0].mac packetReceivedFromUpper:vector(packetBytes) ETV
attr interpolationmode none
attr source packetReceivedFromUpper
attr title "packet bytes from higher layer, vector(packetBytes)"
vector 242 KFatTreeAsync.pod[2].aggregateSwitch[0].eth[0].mac.queue packetPushed:vector(packetBytes) ETV
attr interpolationmode none
attr title "packet pushed, vector(packetBytes)"
vector 243 KFatTreeAsync.pod[2].aggregateSwitch[0].eth[0].mac.queue queueLength:vector ETV
attr interpolationmode sample-hold
attr source "count(packetPushed) - count(packetPopped) - count(packetRemoved) - count(packetDropped)"
attr title "queue length, vector"
vector 244 KFatTreeAsync.pod[2].aggregateSwitch[0].eth[0].mac.queue packetPopped:vector(packetBytes) ETV
attr interpolationmode none
attr title "packet popped, vector(packetBytes)"
vector 245 KFatTreeAsync.pod[2].aggregateSwitch[0].eth[0].mac.queue queueingTime:vector ETV
attr interpolationmode none
attr source queueingTime(packetPopped)
attr title "queueing times, vector"
attr unit s
vector 246 KFatTreeAsync.pod[2].aggregateSwitch[0].eth[1].mac packetReceivedFromUpper:vector(packetBytes) ETV
attr interpolationmode none
attr source packetReceivedFromUpper
attr title "packet bytes from higher layer, vector(packetBytes)"
vector 247 KFatTreeAsync.pod[2].aggregateSwitch[0].eth[1].mac.queue packetPushed:vector(packetBytes) ETV
attr interpolationmode none
attr title "packet pushed, vector(packetBytes)"
vector 248 KFatTreeAsync.pod[2].aggregateSwitch[0].eth[1].mac.queue queueLength:vector ETV
attr interpolationmode sample-hold
attr source "count(packetPushed) - count(packetPopped) - count(packetRemoved) - count(packetDropped)"
attr title "queue length, vector"
vector 249 KFatTreeAsync.pod[2].aggregateSwitch[0].eth[1].mac.queue packetPopped:vector(packetBytes) ETV
attr interpolationmode none
attr title "packet popped, vector(packetBytes)"
vector 250 KFatTreeAsync.pod[2].aggregateSwitch[0].eth[1].mac.queue queueingTime:vector ETV
attr interpolationmode none
attr source queueingTime(packetPopped)
attr title "queueing times, vector"
attr unit s
vector 251 KFatTreeAsync.pod[2].aggregateSwitch[0].eth[2].mac packetReceivedFromUpper:vector(packetBytes) ETV
attr interpolationmode none
attr source packetReceivedFromUpper
attr title "packet bytes from higher layer, vector(packetBytes)"
vector 252 KFatTreeAsync.pod[2].aggregateSwitch[0].eth[2].mac.queue packetPushed:vector(packetBytes) ETV
attr interpolationmode none
attr title "packet pushed, vector(packetBytes)"
vector 253 KFatTreeAsync.pod[2].aggregateSwitch[0].eth[2].mac.queue queueLength:vector ETV
attr interpolationmode sample-hold
attr source "count(packetPushed) - count(packetPopped) - count(packetRemoved) - count(packetDropped)"
attr title "queue length, vector"
vector 254 KFatTreeAsync.pod[2].aggregateSwitch[0].eth[2].mac.queue packetPopped:vector(packetBytes) ETV
attr interpolationmode none
attr title "packet popped, vector(packetBytes)"
vector 255 KFatTreeAsync.pod[2].aggregateSwitch[0].eth[2].mac.queue queueingTime:vector ETV
attr interpolationmode none
attr source queueingTime(packetPopped)
attr title "queueing times, vector"
attr unit s
vector 256 KFatTreeAsync.pod[2].aggregateSwitch[0].eth[3].mac packetReceivedFromUpper:vector(packetBytes) ETV
attr interpolationmode none
attr source packetReceivedFromUpper
attr title "packet bytes from higher layer, vector(packetBytes)"
vector 257 KFatTreeAsync.pod[2].aggregateSwitch[0].eth[3].mac.queue packetPushed:vector(packetBytes) ETV
attr interpolationmode none
attr title "packet pushed, vector(packetBytes)"
vector 258 KFatTreeAsync.pod[2].aggregateSwitch[0].eth[3].mac.queue queueLength:vector ETV
attr interpolationmode sample-hold
attr source "count(packetPushed) - count(packetPopped) - count(packetRemoved) - count(packetDropped)"
attr title "queue length, vector"
vector 259 KFatTreeAsync.pod[2].aggregateSwitch[0].eth[3].mac.queue packetPopped:vector(packetBytes) ETV
attr interpolationmode none
attr title "packet popped, vector(packetBytes)"
vector 260 KFatTreeAsync.pod[2].aggregateSwitch[0].eth[3].mac.queue queueingTime:vector ETV
attr interpolationmode none
attr source queueingTime(packetPopped)
attr title "queueing times, vector"
attr unit s
vector 261 KFatTreeAsync.pod[2].aggregateSwitch[1].eth[0].mac packetReceivedFromUpper:vector(packetBytes) ETV
attr interpolationmode none
attr source packetReceivedFromUpper
attr title "packet bytes from higher layer, vector(packetBytes)"
vector 262 KFatTreeAsync.pod[2].aggregateSwitch[1].eth[0].mac.queue packetPushed:vector(packetBytes) ETV
attr interpolationmode none
attr title "packet pushed, vector(packetBytes)"
vector 263 KFatTreeAsync.pod[2].aggregateSwitch[1].eth[0].mac.queue queueLength:vector ETV
attr interpolationmode sample-hold
attr source "count(packetPushed) - count(packetPopped) - count(packetRemoved) - count(packetDropped)"
attr title "queue length, vector"
vector 264 KFatTreeAsync.pod[2].aggregateSwitch[1].eth[0].mac.queue packetPopped:vector(packetBytes) ETV
attr interpolationmode none
attr title "packet popped, vector(packetBytes)"
vector 265 KFatTreeAsync.pod[2].aggregateSwitch[1].eth[0].mac.queue queueingTime:vector ETV
attr interpolationmode none
attr source queueingTime(packetPopped)
attr title "queueing times, vector"
attr unit s
vector 266 KFatTreeAsync.pod[2].aggregateSwitch[1].eth[1].mac packetReceivedFromUpper:vector(packetBytes) ETV
attr interpolationmode none
attr source packetReceivedFromUpper
attr title "packet bytes from higher layer, vector(packetBytes)"
vector 267 KFatTreeAsync.pod[2].aggregateSwitch[1].eth[1].mac.queue packetPushed:vector(packetBytes) ETV
attr interpolationmode none
attr title "packet pushed, vector(packetBytes)"
vector 268 KFatTreeAsync.pod[2].aggregateSwitch[1].eth[1].mac.queue queueLength:vector ETV
attr interpolationmode sample-hold
attr source "count(packetPushed) - count(packetPopped) - count(packetRemoved) - count(packetDropped)"
attr title "queue length, vector"
vector 269 KFatTreeAsync.pod[2].aggregateSwitch[1].eth[1].mac.queue packetPopped:vector(packetBytes) ETV
attr interpolationmode none
attr title "packet popped, vector(packetBytes)"
vector 270 KFatTreeAsync.pod[2].aggregateSwitch[1].eth[1].mac.queue queueingTime:vector ETV
attr interpolationmode none
attr source queueingTime(packetPopped)
attr title "queueing times, vector"
attr unit s
vector 271 KFatTreeAsync.pod[2].aggregateSwitch[1].eth[2].mac packetReceivedFromUpper:vector(packetBytes) ETV
attr interpolationmode none
attr source packetReceivedFromUpper
attr title "packet bytes from higher layer, vector(packetBytes)"
vector 272 KFatTreeAsync.pod[2].aggregateSwitch[1].eth[2].mac.queue packetPushed:vector(packetBytes) ETV
attr interpolationmode none
attr title "packet pushed, vector(packetBytes)"
vector 273 KFatTreeAsync.pod[2].aggregateSwitch[1].eth[2].mac.queue queueLength:vector ETV
attr interpolationmode sample-hold
attr source "count(packetPushed) - count(packetPopped) - count(packetRemoved) - count(packetDropped)"
attr title "queue length, vector"
vector 274 KFatTreeAsync.pod[2].aggregateSwitch[1].eth[2].mac.queue packetPopped:vector(packetBytes) ETV
attr interpolationmode none
attr title "packet popped, vector(packetBytes)"
vector 275 KFatTreeAsync.pod[2].aggregateSwitch[1].eth[2].mac.queue queueingTime:vector ETV
attr interpolationmode none
attr source queueingTime(packetPopped)
attr title "queueing times, vector"
attr unit s
vector 276 KFatTreeAsync.pod[2].aggregateSwitch[1].eth[3].mac packetReceivedFromUpper:vector(packetBytes) ETV
attr interpolationmode none
attr source packetReceivedFromUpper
attr title "packet bytes from higher layer, vector(packetBytes)"
vector 277 KFatTreeAsync.pod[2].aggregateSwitch[1].eth[3].mac.queue packetPushed:vector(packetBytes) ETV
attr interpolationmode none
attr title "packet pushed, vector(packetBytes)"
vector 278 KFatTreeAsync.pod[2].aggregateSwitch[1].eth[3].mac.queue queueLength:vector ETV
attr interpolationmode sample-hold
attr source "count(packetPushed) - count(packetPopped) - count(packetRemoved) - count(packetDropped)"
attr title "queue length, vector"
vector 279 KFatTreeAsync.pod[2].aggregateSwitch[1].eth[3].mac.queue packetPopped:vector(packetBytes) ETV
attr interpolationmode none
attr title "packet popped, vector(packetBytes)"
vector 280 KFatTreeAsync.pod[2].aggregateSwitch[1].eth[3].mac.queue queueingTime:vector ETV
attr interpolationmode none
attr source queueingTime(packetPopped)
attr title "queueing times, vector"
attr unit s
vector 281 KFatTreeAsync.pod[2].edgeSwitch[0].eth[0].mac packetReceivedFromUpper:vector(packetBytes) ETV
attr interpolationmode none
attr source packetReceivedFromUpper
attr title "packet bytes from higher layer, vector(packetBytes)"
vector 282 KFatTreeAsync.pod[2].edgeSwitch[0].eth[0].mac.queue packetPushed:vector(packetBytes) ETV
attr interpolationmode none
attr title "packet pushed, vector(packetBytes)"
vector 283 KFatTreeAsync.pod[2].edgeSwitch[0].eth[0].mac.queue queueLength:vector ETV
attr interpolationmode sample-hold
attr source "count(packetPushed) - count(packetPopped) - count(packetRemoved) - count(packetDropped)"
attr title "queue length, vector"
vector 284 KFatTreeAsync.pod[2].edgeSwitch[0].eth[0].mac.queue packetPopped:vector(packetBytes) ETV
attr interpolationmode none
attr title "packet popped, vector(packetBytes)"
vector 285 KFatTreeAsync.pod[2].edgeSwitch[0].eth[0].mac.queue queueingTime:vector ETV
attr interpolationmode none
attr source queueingTime(packetPopped)
attr title "queueing times, vector"
attr unit s
vector 286 KFatTreeAsync.pod[2].edgeSwitch[0].eth[1].mac packetReceivedFromUpper:vector(packetBytes) ETV
attr interpolationmode none
attr source packetReceivedFromUpper
attr title "packet bytes from higher layer, vector(packetBytes)"
vector 287 KFatTreeAsync.pod[2].edgeSwitch[0].eth[1].mac.queue packetPushed:vector(packetBytes) ETV
attr interpolationmode none
attr title "packet pushed, vector(packetBytes)"
vector 288 KFatTreeAsync.pod[2].edgeSwitch[0].eth[1].mac.queue queueLength:vector ETV
attr interpolationmode sample-hold
attr source "count(packetPushed) - count(packetPopped) - count(packetRemoved) - count(packetDropped)"
attr title "queue length, vector"
vector 289 KFatTreeAsync.pod[2].edgeSwitch[0].eth[1].mac.queue packetPopped:vector(packetBytes) ETV
attr interpolationmode none
attr title "packet popped, vector(packetBytes)"
vector 290 KFatTreeAsync.pod[2].edgeSwitch[0].eth[1].mac.queue queueingTime:vector ETV
attr interpolationmode none
attr source queueingTime(packetPopped)
attr title "queueing times, vector"
attr unit s
vector 291 KFatTreeAsync.pod[2].edgeSwitch[0].eth[2].mac packetReceivedFromUpper:vector(packetBytes) ETV
attr interpolationmode none
attr source packetReceivedFromUpper
attr title "packet bytes from higher layer, vector(packetBytes)"
vector 292 KFatTreeAsync.pod[2].edgeSwitch[0].eth[2].mac.queue packetPushed:vector(packetBytes) ETV
attr interpolationmode none
attr title "packet pushed, vector(packetBytes)"
vector 293 KFatTreeAsync.pod[2].edgeSwitch[0].eth[2].mac.queue queueLength:vector ETV
attr interpolationmode sample-hold
attr source "count(packetPushed) - count(packetPopped) - count(packetRemoved) - count(packetDropped)"
attr title "queue length, vector"
vector 294 KFatTreeAsync.pod[2].edgeSwitch[0].eth[2].mac.queue packetPopped:vector(packetBytes) ETV
attr interpolationmode none
attr title "packet popped, vector(packetBytes)"
vector 295 KFatTreeAsync.pod[2].edgeSwitch[0].eth[2].mac.queue queueingTime:vector ETV
attr interpolationmode none
attr source queueingTime(packetPopped)
attr title "queueing times, vector"
attr unit s
vector 296 KFatTreeAsync.pod[2].edgeSwitch[0].eth[3].mac packetReceivedFromUpper:vector(packetBytes) ETV
attr interpolationmode none
attr source packetReceivedFromUpper
attr title "packet bytes from higher layer, vector(packetBytes)"
vector 297 KFatTreeAsync.pod[2].edgeSwitch[0].eth[3].mac.queue packetPushed:vector(packetBytes) ETV
attr interpolationmode none
attr title "packet pushed, vector(packetBytes)"
vector 298 KFatTreeAsync.pod[2].edgeSwitch[0].eth[3].mac.queue queueLength:vector ETV
attr interpolationmode sample-hold
attr source "count(packetPushed) - count(packetPopped) - count(packetRemoved) - count(packetDropped)"
attr title "queue length, vector"
vector 299 KFatTreeAsync.pod[2].edgeSwitch[0].eth[3].mac.queue packetPopped:vector(packetBytes) ETV
attr interpolationmode none
attr title "packet popped, vector(packetBytes)"
vector 300 KFatTreeAsync.pod[2].edgeSwitch[0].eth[3].mac.queue queueingTime:vector ETV
attr interpolationmode none
attr source queueingTime(packetPopped)
attr title "queueing times, vector"
attr unit s
vector 301 KFatTreeAsync.pod[2].edgeSwitch[1].eth[0].mac packetReceivedFromUpper:vector(packetBytes) ETV
attr interpolationmode none
attr source packetReceivedFromUpper
attr title "packet bytes from higher layer, vector(packetBytes)"
vector 302 KFatTreeAsync.pod[2].edgeSwitch[1].eth[0].mac.queue packetPushed:vector(packetBytes) ETV
attr interpolationmode none
attr title "packet pushed, vector(packetBytes)"
vector 303 KFatTreeAsync.pod[2].edgeSwitch[1].eth[0].mac.queue queueLength:vector ETV
attr interpolationmode sample-hold
attr source "count(packetPushed) - count(packetPopped) - count(packetRemoved) - count(packetDropped)"
attr title "queue length, vector"
vector 304 KFatTreeAsync.pod[2].edgeSwitch[1].eth[0].mac.queue packetPopped:vector(packetBytes) ETV
attr interpolationmode none
attr title "packet popped, vector(packetBytes)"
vector 305 KFatTreeAsync.pod[2].edgeSwitch[1].eth[0].mac.queue queueingTime:vector ETV
attr interpolationmode none
attr source queueingTime(packetPopped)
attr title "queueing times, vector"
attr unit s
vector 306 KFatTreeAsync.pod[2].edgeSwitch[1].eth[1].mac packetReceivedFromUpper:vector(packetBytes) ETV
attr interpolationmode none
attr source packetReceivedFromUpper
attr title "packet bytes from higher layer, vector(packetBytes)"
vector 307 KFatTreeAsync.pod[2].edgeSwitch[1].eth[1].mac.queue packetPushed:vector(packetBytes) ETV
attr interpolationmode none
attr title "packet pushed, vector(packetBytes)"
vector 308 KFatTreeAsync.pod[2].edgeSwitch[1].eth[1].mac.queue queueLength:vector ETV
attr interpolationmode sample-hold
attr source "count(packetPushed) - count(packetPopped) - count(packetRemoved) - count(packetDropped)"
attr title "queue length, vector"
vector 309 KFatTreeAsync.pod[2].edgeSwitch[1].eth[1].mac.queue packetPopped:vector(packetBytes) ETV
attr interpolationmode none
attr title "packet popped, vector(packetBytes)"
vector 310 KFatTreeAsync.pod[2].edgeSwitch[1].eth[1].mac.queue queueingTime:vector ETV
attr interpolationmode none
attr source queueingTime(packetPopped)
attr title "queueing times, vector"
attr unit s
vector 311 KFatTreeAsync.pod[2].edgeSwitch[1].eth[2].mac packetReceivedFromUpper:vector(packetBytes) ETV
attr interpolationmode none
attr source packetReceivedFromUpper
attr title "packet bytes from higher layer, vector(packetBytes)"
vector 312 KFatTreeAsync.pod[2].edgeSwitch[1].eth[2].mac.queue packetPushed:vector(packetBytes) ETV
attr interpolationmode none
attr title "packet pushed, vector(packetBytes)"
vector 313 KFatTreeAsync.pod[2].edgeSwitch[1].eth[2].mac.queue queueLength:vector ETV
attr interpolationmode sample-hold
attr source "count(packetPushed) - count(packetPopped) - count(packetRemoved) - count(packetDropped)"
attr title "queue length, vector"
vector 314 KFatTreeAsync.pod[2].edgeSwitch[1].eth[2].mac.queue packetPopped:vector(packetBytes) ETV
attr interpolationmode none
attr title "packet popped, vector(packetBytes)"
vector 315 KFatTreeAsync.pod[2].edgeSwitch[1].eth[2].mac.queue queueingTime:vector ETV
attr interpolationmode none
attr source queueingTime(packetPopped)
attr title "queueing times, vector"
attr unit s
vector 316 KFatTreeAsync.pod[2].edgeSwitch[1].eth[3].mac packetReceivedFromUpper:vector(packetBytes) ETV
attr interpolationmode none
attr source packetReceivedFromUpper
attr title "packet bytes from higher layer, vector(packetBytes)"
vector 317 KFatTreeAsync.pod[2].edgeSwitch[1].eth[3].mac.queue packetPushed:vector(packetBytes) ETV
attr interpolationmode none
attr title "packet pushed, vector(packetBytes)"
vector 318 KFatTreeAsync.pod[2].edgeSwitch[1].eth[3].mac.queue queueLength:vector ETV
attr interpolationmode sample-hold
attr source "count(packetPushed) - count(packetPopped) - count(packetRemoved) - count(packetDropped)"
attr title "queue length, vector"
vector 319 KFatTreeAsync.pod[2].edgeSwitch[1].eth[3].mac.queue packetPopped:vector(packetBytes) ETV
attr interpolationmode none
attr title "packet popped, vector(packetBytes)"
vector 320 KFatTreeAsync.pod[2].edgeSwitch[1].eth[3].mac.queue queueingTime:vector ETV
attr interpolationmode none
attr source queueingTime(packetPopped)
attr title "queueing times, vector"
attr unit s
vector 321 KFatTreeAsync.pod[3].aggregateSwitch[0].eth[0].mac packetReceivedFromUpper:vector(packetBytes) ETV
attr interpolationmode none
attr source packetReceivedFromUpper
attr title "packet bytes from higher layer, vector(packetBytes)"
vector 322 KFatTreeAsync.pod[3].aggregateSwitch[0].eth[0].mac.queue packetPushed:vector(packetBytes) ETV
attr interpolationmode none
attr title "packet pushed, vector(packetBytes)"
vector 323 KFatTreeAsync.pod[3].aggregateSwitch[0].eth[0].mac.queue queueLength:vector ETV
attr interpolationmode sample-hold
attr source "count(packetPushed) - count(packetPopped) - count(packetRemoved) - count(packetDropped)"
attr title "queue length, vector"
vector 324 KFatTreeAsync.pod[3].aggregateSwitch[0].eth[0].mac.queue packetPopped:vector(packetBytes) ETV
attr interpolationmode none
attr title "packet popped, vector(packetBytes)"
vector 325 KFatTreeAsync.pod[3].aggregateSwitch[0].eth[0].mac.queue queueingTime:vector ETV
attr interpolationmode none
attr source queueingTime(packetPopped)
attr title "queueing times, vector"
attr unit s
vector 326 KFatTreeAsync.pod[3].aggregateSwitch[0].eth[1].mac packetReceivedFromUpper:vector(packetBytes) ETV
attr interpolationmode none
attr source packetReceivedFromUpper
attr title "packet bytes from higher layer, vector(packetBytes)"
vector 327 KFatTreeAsync.pod[3].aggregateSwitch[0].eth[1].mac.queue packetPushed:vector(packetBytes) ETV
attr interpolationmode none
attr title "packet pushed, vector(packetBytes)"
vector 328 KFatTreeAsync.pod[3].aggregateSwitch[0].eth[1].mac.queue queueLength:vector ETV
attr interpolationmode sample-hold
attr source "count(packetPushed) - count(packetPopped) - count(packetRemoved) - count(packetDropped)"
attr title "queue length, vector"
vector 329 KFatTreeAsync.pod[3].aggregateSwitch[0].eth[1].mac.queue packetPopped:vector(packetBytes) ETV
attr interpolationmode none
attr title "packet popped, vector(packetBytes)"
vector 330 KFatTreeAsync.pod[3].aggregateSwitch[0].eth[1].mac.queue queueingTime:vector ETV
attr interpolationmode none
attr source queueingTime(packetPopped)
attr title "queueing times, vector"
attr unit s
vector 331 KFatTreeAsync.pod[3].aggregateSwitch[0].eth[2].mac packetReceivedFromUpper:vector(packetBytes) ETV
attr interpolationmode none
attr source packetReceivedFromUpper
attr title "packet bytes from higher layer, vector(packetBytes)"
vector 332 KFatTreeAsync.pod[3].aggregateSwitch[0].eth[2].mac.queue packetPushed:vector(packetBytes) ETV
attr interpolationmode none
attr title "packet pushed, vector(packetBytes)"
vector 333 KFatTreeAsync.pod[3].aggregateSwitch[0].eth[2].mac.queue queueLength:vector ETV
attr interpolationmode sample-hold
attr source "count(packetPushed) - count(packetPopped) - count(packetRemoved) - count(packetDropped)"
attr title "queue length, vector"
vector 334 KFatTreeAsync.pod[3].aggregateSwitch[0].eth[2].mac.queue packetPopped:vector(packetBytes) ETV
attr interpolationmode none
attr title "packet popped, vector(packetBytes)"
vector 335 KFatTreeAsync.pod[3].aggregateSwitch[0].eth[2].mac.queue queueingTime:vector ETV
attr interpolationmode none
attr source queueingTime(packetPopped)
attr title "queueing times, vector"
attr unit s
vector 336 KFatTreeAsync.pod[3].aggregateSwitch[0].eth[3].mac packetReceivedFromUpper:vector(packetBytes) ETV
attr interpolationmode none
attr source packetReceivedFromUpper
attr title "packet bytes from higher layer, vector(packetBytes)"
vector 337 KFatTreeAsync.pod[3].aggregateSwitch[0].eth[3].mac.queue packetPushed:vector(packetBytes) ETV
attr interpolationmode none
attr title "packet pushed, vector(packetBytes)"
vector 338 KFatTreeAsync.pod[3].aggregateSwitch[0].eth[3].mac.queue queueLength:vector ETV
attr interpolationmode sample-hold
attr source "count(packetPushed) - count(packetPopped) - count(packetRemoved) - count(packetDropped)"
attr title "queue length, vector"
vector 339 KFatTreeAsync.pod[3].aggregateSwitch[0].eth[3].mac.queue packetPopped:vector(packetBytes) ETV
attr interpolationmode none
attr title "packet popped, vector(packetBytes)"
vector 340 KFatTreeAsync.pod[3].aggregateSwitch[0].eth[3].mac.queue queueingTime:vector ETV
attr interpolationmode none
attr source queueingTime(packetPopped)
attr title "queueing times, vector"
attr unit s
vector 341 KFatTreeAsync.pod[3].aggregateSwitch[1].eth[0].mac packetReceivedFromUpper:vector(packetBytes) ETV
attr interpolationmode none
attr source packetReceivedFromUpper
attr title "packet bytes from higher layer, vector(packetBytes)"
vector 342 KFatTreeAsync.pod[3].aggregateSwitch[1].eth[0].mac.queue packetPushed:vector(packetBytes) ETV
attr interpolationmode none
attr title "packet pushed, vector(packetBytes)"
vector 343 KFatTreeAsync.pod[3].aggregateSwitch[1].eth[0].mac.queue queueLength:vector ETV
attr interpolationmode sample-hold
attr source "count(packetPushed) - count(packetPopped) - count(packetRemoved) - count(packetDropped)"
attr title "queue length, vector"
vector 344 KFatTreeAsync.pod[3].aggregateSwitch[1].eth[0].mac.queue packetPopped:vector(packetBytes) ETV
attr interpolationmode none
attr title "packet popped, vector(packetBytes)"
vector 345 KFatTreeAsync.pod[3].aggregateSwitch[1].eth[0].mac.queue queueingTime:vector ETV
attr interpolationmode none
attr source queueingTime(packetPopped)
attr title "queueing times, vector"
attr unit s
vector 346 KFatTreeAsync.pod[3].aggregateSwitch[1].eth[1].mac packetReceivedFromUpper:vector(packetBytes) ETV
attr interpolationmode none
attr source packetReceivedFromUpper
attr title "packet bytes from higher layer, vector(packetBytes)"
vector 347 KFatTreeAsync.pod[3].aggregateSwitch[1].eth[1].mac.queue packetPushed:vector(packetBytes) ETV
attr interpolationmode none
attr title "packet pushed, vector(packetBytes)"
vector 348 KFatTreeAsync.pod[3].aggregateSwitch[1].eth[1].mac.queue queueLength:vector ETV
attr interpolationmode sample-hold
attr source "count(packetPushed) - count(packetPopped) - count(packetRemoved) - count(packetDropped)"
attr title "queue length, vector"
vector 349 KFatTreeAsync.pod[3].aggregateSwitch[1].eth[1].mac.queue packetPopped:vector(packetBytes) ETV
attr interpolationmode none
attr title "packet popped, vector(packetBytes)"
vector 350 KFatTreeAsync.pod[3].aggregateSwitch[1].eth[1].mac.queue queueingTime:vector ETV
attr interpolationmode none
attr source queueingTime(packetPopped)
attr title "queueing times, vector"
attr unit s
vector 351 KFatTreeAsync.pod[3].aggregateSwitch[1].eth[2].mac packetReceivedFromUpper:vector(packetBytes) ETV
attr interpolationmode none
attr source packetReceivedFromUpper
attr title "packet bytes from higher layer, vector(packetBytes)"
vector 352 KFatTreeAsync.pod[3].aggregateSwitch[1].eth[2].mac.queue packetPushed:vector(packetBytes) ETV
attr interpolationmode none
attr title "packet pushed, vector(packetBytes)"
vector 353 KFatTreeAsync.pod[3].aggregateSwitch[1].eth[2].mac.queue queueLength:vector ETV
attr interpolationmode sample-hold
attr source "count(packetPushed) - count(packetPopped) - count(packetRemoved) - count(packetDropped)"
attr title "queue length, vector"
vector 354 KFatTreeAsync.pod[3].aggregateSwitch[1].eth[2].mac.queue packetPopped:vector(packetBytes) ETV
attr interpolationmode none
attr title "packet popped, vector(packetBytes)"
vector 355 KFatTreeAsync.pod[3].aggregateSwitch[1].eth[2].mac.queue queueingTime:vector ETV
attr interpolationmode none
attr source queueingTime(packetPopped)
attr title "queueing times, vector"
attr unit s
vector 356 KFatTreeAsync.pod[3].aggregateSwitch[1].eth[3].mac packetReceivedFromUpper:vector(packetBytes) ETV
attr interpolationmode none
attr source packetReceivedFromUpper
attr title "packet bytes from higher layer, vector(packetBytes)"
vector 357 KFatTreeAsync.pod[3].aggregateSwitch[1].eth[3].mac.queue packetPushed:vector(packetBytes) ETV
attr interpolationmode none
attr title "packet pushed, vector(packetBytes)"
vector 358 KFatTreeAsync.pod[3].aggregateSwitch[1].eth[3].mac.queue queueLength:vector ETV
attr interpolationmode sample-hold
attr source "count(packetPushed) - count(packetPopped) - count(packetRemoved) - count(packetDropped)"
attr title "queue length, vector"
vector 359 KFatTreeAsync.pod[3].aggregateSwitch[1].eth[3].mac.queue packetPopped:vector(packetBytes) ETV
attr interpolationmode none
attr title "packet popped, vector(packetBytes)"
vector 360 KFatTreeAsync.pod[3].aggregateSwitch[1].eth[3].mac.queue queueingTime:vector ETV
attr interpolationmode none
attr source queueingTime(packetPopped)
attr title "queueing times, vector"
attr unit s
vector 361 KFatTreeAsync.pod[3].edgeSwitch[0].eth[0].mac packetReceivedFromUpper:vector(packetBytes) ETV
attr interpolationmode none
attr source packetReceivedFromUpper
attr title "packet bytes from higher layer, vector(packetBytes)"
vector 362 KFatTreeAsync.pod[3].edgeSwitch[0].eth[0].mac.queue packetPushed:vector(packetBytes) ETV
attr interpolationmode none
attr title "packet pushed, vector(packetBytes)"
vector 363 KFatTreeAsync.pod[3].edgeSwitch[0].eth[0].mac.queue queueLength:vector ETV
attr interpolationmode sample-hold
attr source "count(packetPushed) - count(packetPopped) - count(packetRemoved) - count(packetDropped)"
attr title "queue length, vector"
vector 364 KFatTreeAsync.pod[3].edgeSwitch[0].eth[0].mac.queue packetPopped:vector(packetBytes) ETV
attr interpolationmode none
attr title "packet popped, vector(packetBytes)"
vector 365 KFatTreeAsync.pod[3].edgeSwitch[0].eth[0].mac.queue queueingTime:vector ETV
attr interpolationmode none
attr source queueingTime(packetPopped)
attr title "queueing times, vector"
attr unit s
vector 366 KFatTreeAsync.pod[3].edgeSwitch[0].eth[1].mac packetReceivedFromUpper:vector(packetBytes) ETV
attr interpolationmode none
attr source packetReceivedFromUpper
attr title "packet bytes from higher layer, vector(packetBytes)"
vector 367 KFatTreeAsync.pod[3].edgeSwitch[0].eth[1].mac.queue packetPushed:vector(packetBytes) ETV
attr interpolationmode none
attr title "packet pushed, vector(packetBytes)"
vector 368 KFatTreeAsync.pod[3].edgeSwitch[0].eth[1].mac.queue queueLength:vector ETV
attr interpolationmode sample-hold
attr source "count(packetPushed) - count(packetPopped) - count(packetRemoved) - count(packetDropped)"
attr title "queue length, vector"
vector 369 KFatTreeAsync.pod[3].edgeSwitch[0].eth[1].mac.queue packetPopped:vector(packetBytes) ETV
attr interpolationmode none
attr title "packet popped, vector(packetBytes)"
vector 370 KFatTreeAsync.pod[3].edgeSwitch[0].eth[1].mac.queue queueingTime:vector ETV
attr interpolationmode none
attr source queueingTime(packetPopped)
attr title "queueing times, vector"
attr unit s
vector 371 KFatTreeAsync.pod[3].edgeSwitch[0].eth[2].mac packetReceivedFromUpper:vector(packetBytes) ETV
attr interpolationmode none
attr source packetReceivedFromUpper
attr title "packet bytes from higher layer, vector(packetBytes)"
vector 372 KFatTreeAsync.pod[3].edgeSwitch[0].eth[2].mac.queue packetPushed:vector(packetBytes) ETV
attr interpolationmode none
attr title "packet pushed, vector(packetBytes)"
vector 373 KFatTreeAsync.pod[3].edgeSwitch[0].eth[2].mac.queue queueLength:vector ETV
attr interpolationmode sample-hold
attr source "count(packetPushed) - count(packetPopped) - count(packetRemoved) - count(packetDropped)"
attr title "queue length, vector"
vector 374 KFatTreeAsync.pod[3].edgeSwitch[0].eth[2].mac.queue packetPopped:vector(packetBytes) ETV
attr interpolationmode none
attr title "packet popped, vector(packetBytes)"
vector 375 KFatTreeAsync.pod[3].edgeSwitch[0].eth[2].mac.queue queueingTime:vector ETV
attr interpolationmode none
attr source queueingTime(packetPopped)
attr title "queueing times, vector"
attr unit s
vector 376 KFatTreeAsync.pod[3].edgeSwitch[0].eth[3].mac packetReceivedFromUpper:vector(packetBytes) ETV
attr interpolationmode none
attr source packetReceivedFromUpper
attr title "packet bytes from higher layer, vector(packetBytes)"
vector 377 KFatTreeAsync.pod[3].edgeSwitch[0].eth[3].mac.queue packetPushed:vector(packetBytes) ETV
attr interpolationmode none
attr title "packet pushed, vector(packetBytes)"
vector 378 KFatTreeAsync.pod[3].edgeSwitch[0].eth[3].mac.queue queueLength:vector ETV
attr interpolationmode sample-hold
attr source "count(packetPushed) - count(packetPopped) - count(packetRemoved) - count(packetDropped)"
attr title "queue length, vector"
[...]
1000	18291	0.50004074016	20
1000	18770	0.50004179296	21
1000	19316	0.5000430544	22
1000	19722	0.50004419328	23
1000	20090	0.50004524608	24
1000	20433	0.50004629888	25
1000	20755	0.50004735168	26
1000	21049	0.50004840448	27
1000	21266	0.50004945728	28
1000	21413	0.50005051008	29
1000	21507	0.50005156288	30
1000	21570	0.50005261568	31
1000	21605	0.50005366848	32
1000	26657	1.00004206848	33
1000	26723	1.00004206848	34
1000	27981	1.00004427744	35
1000	28526	1.00004533024	36
1000	29005	1.00004638304	37
1000	29551	1.00004764448	38
1000	29957	1.00004878336	39
1000	30325	1.00004983616	40
1000	30668	1.00005088896	41
1000	30990	1.00005194176	42
1000	31284	1.00005299456	43
1000	31501	1.00005404736	44
1000	31648	1.00005510016	45
1000	31742	1.00005615296	46
1000	31805	1.00005720576	47
1000	31840	1.00005825856	48
1000	36892	1.50004876416	49
1000	36958	1.50004876416	50
1000	38216	1.50005097312	51
1000	38761	1.50005202592	52
1000	39240	1.50005307872	53
1000	39786	1.50005434016	54
1000	40192	1.50005547904	55
1000	40560	1.50005653184	56
1000	40903	1.50005758464	57
1000	41225	1.50005863744	58
1000	41519	1.50005969024	59
1000	41736	1.50006074304	60
1000	41883	1.50006179584	61
1000	41977	1.50006284864	62
1000	42040	1.50006390144	63
1000	42075	1.50006495424	64
1000	47127	2.00006891264	65
1000	47193	2.00006891264	66
1000	48451	2.0000711216	67
1000	48996	2.0000721744	68
1000	49475	2.0000732272	69
1000	50021	2.00007448864	70
1000	50427	2.00007562752	71
1000	50795	2.00007668032	72
1000	51138	2.00007773312	73
1000	51460	2.00007878592	74
1000	51754	2.00007983872	75
1000	51971	2.00008089152	76
1000	52118	2.00008194432	77
1000	52212	2.00008299712	78
1000	52275	2.00008404992	79
1000	52310	2.00008510272	80
1000	57362	2.50008265824	81
1000	57428	2.50008265824	82
1001	6146	0.00001754048	1250
1001	6212	0.00001754048	1250
1001	7589	0.0000199408	1250
1001	8122	0.0000209936	1250
1001	8604	0.0000220464	1250
1001	9165	0.00002341312	1250
1001	9634	0.0000245712	1250
1001	10003	0.000025624	1250
1001	10346	0.0000266768	1250
1001	10653	0.0000277296	1250
1001	10906	0.0000287824	1250
1001	11083	0.0000298352	1250
1001	11206	0.000030888	1250
1001	11285	0.0000319408	1250
1001	11336	0.0000329936	1250
1001	11371	0.0000340464	1250
1001	16423	0.5000374784	1250
1001	16489	0.5000374784	1250
1001	17748	0.50003968736	1250
1001	18293	0.50004074016	1250
1001	18771	0.50004179296	1250
1001	19317	0.5000430544	1250
1001	19723	0.50004419328	1250
1001	20092	0.50004524608	1250
1001	20435	0.50004629888	1250
1001	20757	0.50004735168	1250
1001	21051	0.50004840448	1250
1001	21268	0.50004945728	1250
1001	21415	0.50005051008	1250
1001	21508	0.50005156288	1250
1001	21571	0.50005261568	1250
1001	21606	0.50005366848	1250
1001	26658	1.00004206848	1250
1001	26724	1.00004206848	1250
1001	27983	1.00004427744	1250
1001	28528	1.00004533024	1250
1001	29006	1.00004638304	1250
1001	29552	1.00004764448	1250
1001	29958	1.00004878336	1250
1001	30327	1.00004983616	1250
1001	30670	1.00005088896	1250
1001	30992	1.00005194176	1250
1001	31286	1.00005299456	1250
1001	31503	1.00005404736	1250
1001	31650	1.00005510016	1250
1001	31743	1.00005615296	1250
1001	31806	1.00005720576	1250
1001	31841	1.00005825856	1250
1001	36893	1.50004876416	1250
1001	36959	1.50004876416	1250
1001	38218	1.50005097312	1250
1001	38763	1.50005202592	1250
1001	39241	1.50005307872	1250
1001	39787	1.50005434016	1250
1001	40193	1.50005547904	1250
1001	40562	1.50005653184	1250
1001	40905	1.50005758464	1250
1001	41227	1.50005863744	1250
1001	41521	1.50005969024	1250
1001	41738	1.50006074304	1250
1001	41885	1.50006179584	1250
1001	41978	1.50006284864	1250
1001	42041	1.50006390144	1250
1001	42076	1.50006495424	1250
1001	47128	2.00006891264	1250
1001	47194	2.00006891264	1250
1001	48453	2.0000711216	1250
1001	48998	2.0000721744	1250
1001	49476	2.0000732272	1250
1001	50022	2.00007448864	1250
1001	50428	2.00007562752	1250
1001	50797	2.00007668032	1250
1001	51140	2.00007773312	1250
1001	51462	2.00007878592	1250
1001	51756	2.00007983872	1250
1001	51973	2.00008089152	1250
1001	52120	2.00008194432	1250
1001	52213	2.00008299712	1250
1001	52276	2.00008404992	1250
1001	52311	2.00008510272	1250
1001	57363	2.50008265824	1250
1001	57429	2.50008265824	1250
1002	6146	0.00001754048	1.754048e-05
1002	6212	0.00001754048	0
1002	7589	0.0000199408	1.732512e-05
1002	8122	0.0000209936	1.75568e-05
1002	8604	0.0000220464	1.734816e-05
1002	9165	0.00002341312	1.741888e-05
1002	9634	0.0000245712	1.75472e-05
1002	10003	0.000025624	1.755872e-05
1002	10346	0.0000266768	1.755872e-05
1002	10653	0.0000277296	1.753568e-05
1002	10906	0.0000287824	1.75472e-05
1002	11083	0.0000298352	1.755872e-05
1002	11206	0.000030888	1.755872e-05
1002	11285	0.0000319408	1.753568e-05
1002	11336	0.0000329936	1.75472e-05
1002	11371	0.0000340464	1.755872e-05
1002	16423	0.5000374784	1.732896e-05
1002	16489	0.5000374784	0
1002	17748	0.50003968736	1.724288e-05
1002	18293	0.50004074016	1.745152e-05
1002	18771	0.50004179296	1.724288e-05
1002	19317	0.5000430544	1.724288e-05
1002	19723	0.50004419328	1.724288e-05
1002	20092	0.50004524608	1.724288e-05
1002	20435	0.50004629888	1.724288e-05
1002	20757	0.50004735168	1.724288e-05
1002	21051	0.50004840448	1.724288e-05
1002	21268	0.50004945728	1.724288e-05
1002	21415	0.50005051008	1.724288e-05
1002	21508	0.50005156288	1.724288e-05
1002	21571	0.50005261568	1.724288e-05
1002	21606	0.50005366848	1.724288e-05
1002	26658	1.00004206848	1.732896e-05
1002	26724	1.00004206848	0
1002	27983	1.00004427744	1.724288e-05
1002	28528	1.00004533024	1.745152e-05
1002	29006	1.00004638304	1.724288e-05
1002	29552	1.00004764448	1.724288e-05
1002	29958	1.00004878336	1.724288e-05
1002	30327	1.00004983616	1.724288e-05
1002	30670	1.00005088896	1.724288e-05
1002	30992	1.00005194176	1.724288e-05
1002	31286	1.00005299456	1.724288e-05
1002	31503	1.00005404736	1.724288e-05
1002	31650	1.00005510016	1.724288e-05
1002	31743	1.00005615296	1.724288e-05
1002	31806	1.00005720576	1.724288e-05
1002	31841	1.00005825856	1.724288e-05
1002	36893	1.50004876416	1.732896e-05
1002	36959	1.50004876416	0
1002	38218	1.50005097312	1.724288e-05
1002	38763	1.50005202592	1.745152e-05
1002	39241	1.50005307872	1.724288e-05
1002	39787	1.50005434016	1.724288e-05
1002	40193	1.50005547904	1.724288e-05
1002	40562	1.50005653184	1.724288e-05
1002	40905	1.50005758464	1.724288e-05
1002	41227	1.50005863744	1.724288e-05
1002	41521	1.50005969024	1.724288e-05
1002	41738	1.50006074304	1.724288e-05
1002	41885	1.50006179584	1.724288e-05
1002	41978	1.50006284864	1.724288e-05
1002	42041	1.50006390144	1.724288e-05
1002	42076	1.50006495424	1.724288e-05
1002	47128	2.00006891264	1.732896e-05
1002	47194	2.00006891264	0
1002	48453	2.0000711216	1.724288e-05
1002	48998	2.0000721744	1.745152e-05
1002	49476	2.0000732272	1.724288e-05
1002	50022	2.00007448864	1.724288e-05
1002	50428	2.00007562752	1.724288e-05
1002	50797	2.00007668032	1.724288e-05
1002	51140	2.00007773312	1.724288e-05
1002	51462	2.00007878592	1.724288e-05
1002	51756	2.00007983872	1.724288e-05
1002	51973	2.00008089152	1.724288e-05
1002	52120	2.00008194432	1.724288e-05
1002	52213	2.00008299712	1.724288e-05
1002	52276	2.00008404992	1.724288e-05
1002	52311	2.00008510272	1.724288e-05
1002	57363	2.50008265824	1.732896e-05
1002	57429	2.50008265824	0
1003	6146	0.00001754048	0
1003	6212	0.00001754048	0
1003	7589	0.0000199408	0
1003	8122	0.0000209936	0
1003	8604	0.0000220464	0
1003	9165	0.00002341312	0
1003	9634	0.0000245712	0
1003	10003	0.000025624	0
1003	10346	0.0000266768	0
1003	10653	0.0000277296	0
1003	10906	0.0000287824	0
1003	11083	0.0000298352	0
1003	11206	0.000030888	0
1003	11285	0.0000319408	0
1003	11336	0.0000329936	0
1003	11371	0.0000340464	0
1003	16423	0.5000374784	0
1003	16489	0.5000374784	0
1003	17748	0.50003968736	0
1003	18293	0.50004074016	0
1003	18771	0.50004179296	0
1003	19317	0.5000430544	0
1003	19723	0.50004419328	0
1003	20092	0.50004524608	0
1003	20435	0.50004629888	0
1003	20757	0.50004735168	0
1003	21051	0.50004840448	0
1003	21268	0.50004945728	0
1003	21415	0.50005051008	0
1003	21508	0.50005156288	0
1003	21571	0.50005261568	0
1003	21606	0.50005366848	0
1003	26658	1.00004206848	0
1003	26724	1.00004206848	0
1003	27983	1.00004427744	0
1003	28528	1.00004533024	0
1003	29006	1.00004638304	0
1003	29552	1.00004764448	0
1003	29958	1.00004878336	0
1003	30327	1.00004983616	0
1003	30670	1.00005088896	0
1003	30992	1.00005194176	0
1003	31286	1.00005299456	0
1003	31503	1.00005404736	0
1003	31650	1.00005510016	0
1003	31743	1.00005615296	0
1003	31806	1.00005720576	0
1003	31841	1.00005825856	0
1003	36893	1.50004876416	0
1003	36959	1.50004876416	0
1003	38218	1.50005097312	0
1003	38763	1.50005202592	0
1003	39241	1.50005307872	0
1003	39787	1.50005434016	0
1003	40193	1.50005547904	0
1003	40562	1.50005653184	0
1003	40905	1.50005758464	0
1003	41227	1.50005863744	0
1003	41521	1.50005969024	0
1003	41738	1.50006074304	0
1003	41885	1.50006179584	0
1003	41978	1.50006284864	0
1003	42041	1.50006390144	0
1003	42076	1.50006495424	0
1003	47128	2.00006891264	0
1003	47194	2.00006891264	0
1003	48453	2.0000711216	0
1003	48998	2.0000721744	0
1003	49476	2.0000732272	0
1003	50022	2.00007448864	0
1003	50428	2.00007562752	0
1003	50797	2.00007668032	0
1003	51140	2.00007773312	0
1003	51462	2.00007878592	0
1003	51756	2.00007983872	0
1003	51973	2.00008089152	0
1003	52120	2.00008194432	0
1003	52213	2.00008299712	0
1003	52276	2.00008404992	0
1003	52311	2.00008510272	0
1003	57363	2.50008265824	0
1003	57429	2.50008265824	0
1004	6147	0.00001754048	1258
1004	6148	0.00001754048	1258
1004	6149	0.00001754048	1258
1004	6150	0.00001754048	1258
1004	6151	0.00001754048	1258
1004	6152	0.00001754048	1258
1004	6153	0.00001754048	1258
1004	6154	0.00001754048	1258
1004	6155	0.00001754048	1258
1004	6156	0.00001754048	1258
1004	6157	0.00001754048	1258
1004	6158	0.00001754048	1258
1004	6159	0.00001754048	1258
1004	6160	0.00001754048	1258
1004	6161	0.00001754048	1258
1004	6162	0.00001754048	1258
1004	16424	0.5000374784	1258
1004	16425	0.5000374784	1258
1004	16426	0.5000374784	1258
1004	16427	0.5000374784	1258
1004	16428	0.5000374784	1258
1004	16429	0.5000374784	1258
1004	16430	0.5000374784	1258
1004	16431	0.5000374784	1258
1004	16432	0.5000374784	1258
1004	16433	0.5000374784	1258
1004	16434	0.5000374784	1258
1004	16435	0.5000374784	1258
1004	16436	0.5000374784	1258
1004	16437	0.5000374784	1258
1004	16438	0.5000374784	1258
1004	16439	0.5000374784	1258
1004	26659	1.00004206848	1258
1004	26660	1.00004206848	1258
1004	26661	1.00004206848	1258
1004	26662	1.00004206848	1258
1004	26663	1.00004206848	1258
1004	26664	1.00004206848	1258
1004	26665	1.00004206848	1258
1004	26666	1.00004206848	1258
1004	26667	1.00004206848	1258
1004	26668	1.00004206848	1258
1004	26669	1.00004206848	1258
1004	26670	1.00004206848	1258
1004	26671	1.00004206848	1258
1004	26672	1.00004206848	1258
1004	26673	1.00004206848	1258
1004	26674	1.00004206848	1258
1004	36894	1.50004876416	1258
1004	36895	1.50004876416	1258
1004	36896	1.50004876416	1258
1004	36897	1.50004876416	1258
1004	36898	1.50004876416	1258
1004	36899	1.50004876416	1258
1004	36900	1.50004876416	1258
1004	36901	1.50004876416	1258
1004	36902	1.50004876416	1258
1004	36903	1.50004876416	1258
1004	36904	1.50004876416	1258
1004	36905	1.50004876416	1258
1004	36906	1.50004876416	1258
1004	36907	1.50004876416	1258
1004	36908	1.50004876416	1258
1004	36909	1.50004876416	1258
1004	47129	2.00006891264	1258
1004	47130	2.00006891264	1258
1004	47131	2.00006891264	1258
1004	47132	2.00006891264	1258
1004	47133	2.00006891264	1258
1004	47134	2.00006891264	1258
1004	47135	2.00006891264	1258
1004	47136	2.00006891264	1258
1004	47137	2.00006891264	1258
1004	47138	2.00006891264	1258
1004	47139	2.00006891264	1258
1004	47140	2.00006891264	1258
1004	47141	2.00006891264	1258
1004	47142	2.00006891264	1258
1004	47143	2.00006891264	1258
1004	47144	2.00006891264	1258
1004	57364	2.50008265824	1258
1004	57365	2.50008265824	1258
1004	57366	2.50008265824	1258
1004	57367	2.50008265824	1258
1004	57368	2.50008265824	1258
1004	57369	2.50008265824	1258
1004	57370	2.50008265824	1258
1004	57371	2.50008265824	1258
1004	57372	2.50008265824	1258
1004	57373	2.50008265824	1258
1004	57374	2.50008265824	1258
1004	57375	2.50008265824	1258
1004	57376	2.50008265824	1258
1004	57377	2.50008265824	1258
1004	57378	2.50008265824	1258
1004	57379	2.50008265824	1258
1005	6194	0.00001754048	1278
1005	16471	0.5000374784	1278
1005	26706	1.00004206848	1278
1005	36941	1.50004876416	1278
1005	47176	2.00006891264	1278
1005	57411	2.50008265824	1278
1006	6194	0.00001754048	1278
1006	16471	0.5000374784	1278
1006	26706	1.00004206848	1278
1006	36941	1.50004876416	1278
1006	47176	2.00006891264	1278
1006	57411	2.50008265824	1278
1007	11474	0.1	1600000
1007	11474	0.2	0
1007	11474	0.3	0
1007	11474	0.4	0
1007	11474	0.5	0
1007	21709	0.6	1600000
1007	21709	0.7	0
1007	21709	0.8	0
1007	21709	0.9	0
1007	21709	1	0
1007	31944	1.1	1600000
1007	31944	1.2	0
1007	31944	1.3	0
1007	31944	1.4	0
1007	31944	1.5	0
1007	42179	1.6	1600000
1007	42179	1.7	0
1007	42179	1.8	0
1007	42179	1.9	0
1007	42179	2	0
1007	52414	2.1	1600000
1007	52414	2.2	0
1007	52414	2.3	0
1007	52414	2.4	0
1007	52414	2.5	0
1008	11547	0.1	1600000
1008	11547	0.2	0
1008	11547	0.3	0
1008	11547	0.4	0
1008	11547	0.5	0
1008	21782	0.6	1600000
1008	21782	0.7	0
1008	21782	0.8	0
1008	21782	0.9	0
1008	21782	1	0
1008	32017	1.1	1600000
1008	32017	1.2	0
1008	32017	1.3	0
1008	32017	1.4	0
1008	32017	1.5	0
1008	42252	1.6	1600000
1008	42252	1.7	0
1008	42252	1.8	0
1008	42252	1.9	0
1008	42252	2	0
1008	52487	2.1	1600000
1008	52487	2.2	0
1008	52487	2.3	0
1008	52487	2.4	0
1008	52487	2.5	0
1009	11690	0.1	1600000
1009	11690	0.2	0
1009	11690	0.3	0
1009	11690	0.4	0
1009	11690	0.5	0
1009	21925	0.6	1600000
1009	21925	0.7	0
1009	21925	0.8	0
1009	21925	0.9	0
1009	21925	1	0
1009	32160	1.1	1600000
1009	32160	1.2	0
1009	32160	1.3	0
1009	32160	1.4	0
1009	32160	1.5	0
1009	42395	1.6	1600000
1009	42395	1.7	0
1009	42395	1.8	0
1009	42395	1.9	0
1009	42395	2	0
1009	52630	2.1	1600000
1009	52630	2.2	0
1009	52630	2.3	0
1009	52630	2.4	0
1009	52630	2.5	0
1010	11896	0.1	1600000
1010	11896	0.2	0
1010	11896	0.3	0
1010	11896	0.4	0
1010	11896	0.5	0
1010	22131	0.6	1600000
1010	22131	0.7	0
1010	22131	0.8	0
1010	22131	0.9	0
1010	22131	1	0
1010	32366	1.1	1600000
1010	32366	1.2	0
1010	32366	1.3	0
1010	32366	1.4	0
1010	32366	1.5	0
1010	42601	1.6	1600000
1010	42601	1.7	0
1010	42601	1.8	0
1010	42601	1.9	0
1010	42601	2	0
1010	52836	2.1	1600000
1010	52836	2.2	0
1010	52836	2.3	0
1010	52836	2.4	0
1010	52836	2.5	0
1011	12081	0.1	1600000
1011	12081	0.2	0
1011	12081	0.3	0
1011	12081	0.4	0
1011	12081	0.5	0
1011	22316	0.6	1600000
1011	22316	0.7	0
1011	22316	0.8	0
1011	22316	0.9	0
1011	22316	1	0
1011	32551	1.1	1600000
1011	32551	1.2	0
1011	32551	1.3	0
1011	32551	1.4	0
1011	32551	1.5	0
1011	42786	1.6	1600000
1011	42786	1.7	0
1011	42786	1.8	0
1011	42786	1.9	0
1011	42786	2	0
1011	53021	2.1	1600000
1011	53021	2.2	0
1011	53021	2.3	0
1011	53021	2.4	0
1011	53021	2.5	0
1012	12329	0.1	1600000
1012	12329	0.2	0
1012	12329	0.3	0
1012	12329	0.4	0
1012	12329	0.5	0
1012	22564	0.6	1600000
1012	22564	0.7	0
1012	22564	0.8	0
1012	22564	0.9	0
1012	22564	1	0
1012	32799	1.1	1600000
1012	32799	1.2	0
1012	32799	1.3	0
1012	32799	1.4	0
1012	32799	1.5	0
1012	43034	1.6	1600000
1012	43034	1.7	0
1012	43034	1.8	0
1012	43034	1.9	0
1012	43034	2	0
1012	53269	2.1	1600000
1012	53269	2.2	0
1012	53269	2.3	0
1012	53269	2.4	0
1012	53269	2.5	0
1013	12625	0.1	1600000
1013	12625	0.2	0
1013	12625	0.3	0
1013	12625	0.4	0
1013	12625	0.5	0
1013	22860	0.6	1600000
1013	22860	0.7	0
1013	22860	0.8	0
1013	22860	0.9	0
1013	22860	1	0
1013	33095	1.1	1600000
1013	33095	1.2	0
1013	33095	1.3	0
1013	33095	1.4	0
1013	33095	1.5	0
1013	43330	1.6	1600000
1013	43330	1.7	0
1013	43330	1.8	0
1013	43330	1.9	0
1013	43330	2	0
1013	53565	2.1	1600000
1013	53565	2.2	0
1013	53565	2.3	0
1013	53565	2.4	0
1013	53565	2.5	0
1014	12979	0.1	1600000
1014	12979	0.2	0
1014	12979	0.3	0
1014	12979	0.4	0
1014	12979	0.5	0
1014	23214	0.6	1600000
1014	23214	0.7	0
1014	23214	0.8	0
1014	23214	0.9	0
1014	23214	1	0
1014	33449	1.1	1600000
1014	33449	1.2	0
1014	33449	1.3	0
1014	33449	1.4	0
1014	33449	1.5	0
1014	43684	1.6	1600000
1014	43684	1.7	0
1014	43684	1.8	0
1014	43684	1.9	0
1014	43684	2	0
1014	53919	2.1	1600000
1014	53919	2.2	0
1014	53919	2.3	0
1014	53919	2.4	0
1014	53919	2.5	0
1015	13381	0.1	1600000
1015	13381	0.2	0
1015	13381	0.3	0
1015	13381	0.4	0
1015	13381	0.5	0
1015	23616	0.6	1600000
1015	23616	0.7	0
1015	23616	0.8	0
1015	23616	0.9	0
1015	23616	1	0
1015	33851	1.1	1600000
1015	33851	1.2	0
1015	33851	1.3	0
1015	33851	1.4	0
1015	33851	1.5	0
1015	44086	1.6	1600000
1015	44086	1.7	0
1015	44086	1.8	0
1015	44086	1.9	0
1015	44086	2	0
1015	54321	2.1	1600000
1015	54321	2.2	0
1015	54321	2.3	0
1015	54321	2.4	0
1015	54321	2.5	0
1016	13811	0.1	1600000
1016	13811	0.2	0
1016	13811	0.3	0
1016	13811	0.4	0
1016	13811	0.5	0
1016	24046	0.6	1600000
1016	24046	0.7	0
1016	24046	0.8	0
1016	24046	0.9	0
1016	24046	1	0
1016	34281	1.1	1600000
1016	34281	1.2	0
1016	34281	1.3	0
1016	34281	1.4	0
1016	34281	1.5	0
1016	44516	1.6	1600000
1016	44516	1.7	0
1016	44516	1.8	0
1016	44516	1.9	0
1016	44516	2	0
1016	54751	2.1	1600000
1016	54751	2.2	0
1016	54751	2.3	0
1016	54751	2.4	0
1016	54751	2.5	0
1017	14255	0.1	1600000
1017	14255	0.2	0
1017	14255	0.3	0
1017	14255	0.4	0
1017	14255	0.5	0
1017	24490	0.6	1600000
1017	24490	0.7	0
1017	24490	0.8	0
1017	24490	0.9	0
1017	24490	1	0
1017	34725	1.1	1600000
1017	34725	1.2	0
1017	34725	1.3	0
1017	34725	1.4	0
1017	34725	1.5	0
1017	44960	1.6	1600000
1017	44960	1.7	0
1017	44960	1.8	0
1017	44960	1.9	0
1017	44960	2	0
1017	55195	2.1	1600000
1017	55195	2.2	0
1017	55195	2.3	0
1017	55195	2.4	0
1017	55195	2.5	0
1018	14727	0.1	1600000
1018	14727	0.2	0
1018	14727	0.3	0
1018	14727	0.4	0
1018	14727	0.5	0
1018	24962	0.6	1600000
1018	24962	0.7	0
1018	24962	0.8	0
1018	24962	0.9	0
1018	24962	1	0
1018	35197	1.1	1600000
1018	35197	1.2	0
1018	35197	1.3	0
1018	35197	1.4	0
1018	35197	1.5	0
1018	45432	1.6	1600000
1018	45432	1.7	0
1018	45432	1.8	0
1018	45432	1.9	0
1018	45432	2	0
1018	55667	2.1	1600000
1018	55667	2.2	0
1018	55667	2.3	0
1018	55667	2.4	0
1018	55667	2.5	0
1019	15241	0.1	1600000
1019	15241	0.2	0
1019	15241	0.3	0
1019	15241	0.4	0
1019	15241	0.5	0
1019	25476	0.6	1600000
1019	25476	0.7	0
1019	25476	0.8	0
1019	25476	0.9	0
1019	25476	1	0
1019	35711	1.1	1600000
1019	35711	1.2	0
1019	35711	1.3	0
1019	35711	1.4	0
1019	35711	1.5	0
1019	45946	1.6	1600000
1019	45946	1.7	0
1019	45946	1.8	0
1019	45946	1.9	0
1019	45946	2	0
1019	56181	2.1	1600000
1019	56181	2.2	0
1019	56181	2.3	0
1019	56181	2.4	0
1019	56181	2.5	0
1020	15811	0.1	1600000
1020	15811	0.2	0
1020	15811	0.3	0
1020	15811	0.4	0
1020	15811	0.5	0
1020	26046	0.6	1600000
1020	26046	0.7	0
1020	26046	0.8	0
1020	26046	0.9	0
1020	26046	1	0
1020	36281	1.1	1600000
1020	36281	1.2	0
1020	36281	1.3	0
1020	36281	1.4	0
1020	36281	1.5	0
1020	46516	1.6	1600000
1020	46516	1.7	0
1020	46516	1.8	0
1020	46516	1.9	0
1020	46516	2	0
1020	56751	2.1	1600000
1020	56751	2.2	0
1020	56751	2.3	0
1020	56751	2.4	0
1020	56751	2.5	0
1021	16423	0.1	1600000
1021	16423	0.2	0
1021	16423	0.3	0
1021	16423	0.4	0
1021	16423	0.5	0
1021	26658	0.6	1600000
1021	26658	0.7	0
1021	26658	0.8	0
1021	26658	0.9	0
1021	26658	1	0
1021	36893	1.1	1600000
1021	36893	1.2	0
1021	36893	1.3	0
1021	36893	1.4	0
1021	36893	1.5	0
1021	47128	1.6	1600000
1021	47128	1.7	0
1021	47128	1.8	0
1021	47128	1.9	0
1021	47128	2	0
1021	57363	2.1	1600000
1021	57363	2.2	0
1021	57363	2.3	0
1021	57363	2.4	0
1021	57363	2.5	0
1007	57994	2.50008370144	1553139348.6181
1008	57994	2.50008370144	1433667091.0321
1009	57994	2.50008370144	1314194833.4461
1010	57994	2.50008370144	1194722575.8601
1011	57994	2.50008370144	1075250318.2741
1012	57994	2.50008370144	955778060.68808
1013	57994	2.50008370144	955778060.68808
1014	57994	2.50008370144	955778060.68808
1015	57994	2.50008370144	836305803.10207
1016	57994	2.50008370144	716833545.51606
1017	57994	2.50008370144	597361287.93005
1018	57994	2.50008370144	477889030.34404
1019	57994	2.50008370144	358416772.75803
1020	57994	2.50008370144	238944515.17202
1021	57994	2.50008370144	238944515.17202

