file 196358 1652356325                                          
version 2
run General-0-20220512-11:41:35-32807
attr configname General
attr datetime 20220512-11:41:35
attr experiment General
attr inifile omnetpp.ini
attr iterationvars ""
attr iterationvarsf ""
attr measurement ""
attr network KFatTreeNew
attr processid 32807
attr repetition 0
attr replication #0
attr resultdir results
attr runnumber 0
attr seedset 0
param **.k 4
param **.client.numApps 1
param **.client.app[0].typename "\"ClientApp\""
param **.client.app[0].localPort 100
param **.client.app[0].destPort 100
param **.client.app[0].messageLength 1250B
param **.client.app[0].sendInterval 0.5s
param **.client.app[0].destAddresses "\"hosts.coordinator\""
param **.coordinator.numApps 1
param **.coordinator.app[0].typename "\"CoordApp\""
param **.coordinator.app[0].localPort 100
param **.coordinator.app[0].destPort 100
param **.coordinator.app[0].messageLength 1250B
param **.coordinator.app[0].destAddresses "moduleListByPath(\"**.replica[*]\")"
param **.replica[*].numApps 1
param **.replica[*].app[0].typename "\"ReplicaApp\""
param **.replica[*].app[0].localPort 100
param **.replica[*].app[0].destPort 100
param **.replica[*].app[0].messageLength 1250B
param **.replica[*].app[0].destAddresses "\"hosts.coordinator\""
param **.app[0].chooseDestAddrMode "\"perBurst\""
param **.app[0].startTime 60s
param **.app[0].stopTime 1000s
param **.app[0].delayLimit 3s
param **.app[0].joinLocalMulticastGroups true
param **.configurator.config "xmldoc(\"config.xml\")"
param **.configurator.assignDisjunctSubnetAddresses false
param **.configurator.addStaticRoutes false
param **.configurator.addSubnetRoutes false
param **.configurator.addDefaultRoutes false
param **.configurator.optimizeRoutes false
param **.configurator.dumpAddresses true
param **.configurator.dumpRoutes true

vector 0 KFatTreeNew.pod[0].aggregateSwitch[0].eth[0].encap encapPk:vector(packetBytes) ETV
attr interpolationmode none
attr source encapPk
attr title "packets encapsulated, vector(packetBytes)"
vector 1 KFatTreeNew.pod[0].aggregateSwitch[0].eth[1].encap encapPk:vector(packetBytes) ETV
attr interpolationmode none
attr source encapPk
attr title "packets encapsulated, vector(packetBytes)"
vector 2 KFatTreeNew.pod[0].aggregateSwitch[0].eth[2].encap encapPk:vector(packetBytes) ETV
attr interpolationmode none
attr source encapPk
attr title "packets encapsulated, vector(packetBytes)"
vector 3 KFatTreeNew.pod[0].aggregateSwitch[0].eth[3].encap encapPk:vector(packetBytes) ETV
attr interpolationmode none
attr source encapPk
attr title "packets encapsulated, vector(packetBytes)"
vector 4 KFatTreeNew.pod[0].aggregateSwitch[1].eth[0].encap encapPk:vector(packetBytes) ETV
attr interpolationmode none
attr source encapPk
attr title "packets encapsulated, vector(packetBytes)"
vector 5 KFatTreeNew.pod[0].aggregateSwitch[1].eth[1].encap encapPk:vector(packetBytes) ETV
attr interpolationmode none
attr source encapPk
attr title "packets encapsulated, vector(packetBytes)"
vector 6 KFatTreeNew.pod[0].aggregateSwitch[1].eth[2].encap encapPk:vector(packetBytes) ETV
attr interpolationmode none
attr source encapPk
attr title "packets encapsulated, vector(packetBytes)"
vector 7 KFatTreeNew.pod[0].aggregateSwitch[1].eth[3].encap encapPk:vector(packetBytes) ETV
attr interpolationmode none
attr source encapPk
attr title "packets encapsulated, vector(packetBytes)"
vector 8 KFatTreeNew.pod[0].edgeSwitch[0].eth[0].encap encapPk:vector(packetBytes) ETV
attr interpolationmode none
attr source encapPk
attr title "packets encapsulated, vector(packetBytes)"
vector 9 KFatTreeNew.pod[0].edgeSwitch[0].eth[1].encap encapPk:vector(packetBytes) ETV
attr interpolationmode none
attr source encapPk
attr title "packets encapsulated, vector(packetBytes)"
vector 10 KFatTreeNew.pod[0].edgeSwitch[0].eth[2].encap encapPk:vector(packetBytes) ETV
attr interpolationmode none
attr source encapPk
attr title "packets encapsulated, vector(packetBytes)"
vector 11 KFatTreeNew.pod[0].edgeSwitch[0].eth[3].encap encapPk:vector(packetBytes) ETV
attr interpolationmode none
attr source encapPk
attr title "packets encapsulated, vector(packetBytes)"
vector 12 KFatTreeNew.pod[0].edgeSwitch[1].eth[0].encap encapPk:vector(packetBytes) ETV
attr interpolationmode none
attr source encapPk
attr title "packets encapsulated, vector(packetBytes)"
vector 13 KFatTreeNew.pod[0].edgeSwitch[1].eth[1].encap encapPk:vector(packetBytes) ETV
attr interpolationmode none
attr source encapPk
attr title "packets encapsulated, vector(packetBytes)"
vector 14 KFatTreeNew.pod[0].edgeSwitch[1].eth[2].encap encapPk:vector(packetBytes) ETV
attr interpolationmode none
attr source encapPk
attr title "packets encapsulated, vector(packetBytes)"
vector 15 KFatTreeNew.pod[0].edgeSwitch[1].eth[3].encap encapPk:vector(packetBytes) ETV
attr interpolationmode none
attr source encapPk
attr title "packets encapsulated, vector(packetBytes)"
vector 16 KFatTreeNew.pod[1].aggregateSwitch[0].eth[0].encap encapPk:vector(packetBytes) ETV
attr interpolationmode none
attr source encapPk
attr title "packets encapsulated, vector(packetBytes)"
vector 17 KFatTreeNew.pod[1].aggregateSwitch[0].eth[1].encap encapPk:vector(packetBytes) ETV
attr interpolationmode none
attr source encapPk
attr title "packets encapsulated, vector(packetBytes)"
vector 18 KFatTreeNew.pod[1].aggregateSwitch[0].eth[2].encap encapPk:vector(packetBytes) ETV
attr interpolationmode none
attr source encapPk
attr title "packets encapsulated, vector(packetBytes)"
vector 19 KFatTreeNew.pod[1].aggregateSwitch[0].eth[3].encap encapPk:vector(packetBytes) ETV
attr interpolationmode none
attr source encapPk
attr title "packets encapsulated, vector(packetBytes)"
vector 20 KFatTreeNew.pod[1].aggregateSwitch[1].eth[0].encap encapPk:vector(packetBytes) ETV
attr interpolationmode none
attr source encapPk
attr title "packets encapsulated, vector(packetBytes)"
vector 21 KFatTreeNew.pod[1].aggregateSwitch[1].eth[1].encap encapPk:vector(packetBytes) ETV
attr interpolationmode none
attr source encapPk
attr title "packets encapsulated, vector(packetBytes)"
vector 22 KFatTreeNew.pod[1].aggregateSwitch[1].eth[2].encap encapPk:vector(packetBytes) ETV
attr interpolationmode none
attr source encapPk
attr title "packets encapsulated, vector(packetBytes)"
vector 23 KFatTreeNew.pod[1].aggregateSwitch[1].eth[3].encap encapPk:vector(packetBytes) ETV
attr interpolationmode none
attr source encapPk
attr title "packets encapsulated, vector(packetBytes)"
vector 24 KFatTreeNew.pod[1].edgeSwitch[0].eth[0].encap encapPk:vector(packetBytes) ETV
attr interpolationmode none
attr source encapPk
attr title "packets encapsulated, vector(packetBytes)"
vector 25 KFatTreeNew.pod[1].edgeSwitch[0].eth[1].encap encapPk:vector(packetBytes) ETV
attr interpolationmode none
attr source encapPk
attr title "packets encapsulated, vector(packetBytes)"
vector 26 KFatTreeNew.pod[1].edgeSwitch[0].eth[2].encap encapPk:vector(packetBytes) ETV
attr interpolationmode none
attr source encapPk
attr title "packets encapsulated, vector(packetBytes)"
vector 27 KFatTreeNew.pod[1].edgeSwitch[0].eth[3].encap encapPk:vector(packetBytes) ETV
attr interpolationmode none
attr source encapPk
attr title "packets encapsulated, vector(packetBytes)"
vector 28 KFatTreeNew.pod[1].edgeSwitch[1].eth[0].encap encapPk:vector(packetBytes) ETV
attr interpolationmode none
attr source encapPk
attr title "packets encapsulated, vector(packetBytes)"
vector 29 KFatTreeNew.pod[1].edgeSwitch[1].eth[1].encap encapPk:vector(packetBytes) ETV
attr interpolationmode none
attr source encapPk
attr title "packets encapsulated, vector(packetBytes)"
vector 30 KFatTreeNew.pod[1].edgeSwitch[1].eth[2].encap encapPk:vector(packetBytes) ETV
attr interpolationmode none
attr source encapPk
attr title "packets encapsulated, vector(packetBytes)"
vector 31 KFatTreeNew.pod[1].edgeSwitch[1].eth[3].encap encapPk:vector(packetBytes) ETV
attr interpolationmode none
attr source encapPk
attr title "packets encapsulated, vector(packetBytes)"
vector 32 KFatTreeNew.pod[2].aggregateSwitch[0].eth[0].encap encapPk:vector(packetBytes) ETV
attr interpolationmode none
attr source encapPk
attr title "packets encapsulated, vector(packetBytes)"
vector 33 KFatTreeNew.pod[2].aggregateSwitch[0].eth[1].encap encapPk:vector(packetBytes) ETV
attr interpolationmode none
attr source encapPk
attr title "packets encapsulated, vector(packetBytes)"
vector 34 KFatTreeNew.pod[2].aggregateSwitch[0].eth[2].encap encapPk:vector(packetBytes) ETV
attr interpolationmode none
attr source encapPk
attr title "packets encapsulated, vector(packetBytes)"
vector 35 KFatTreeNew.pod[2].aggregateSwitch[0].eth[3].encap encapPk:vector(packetBytes) ETV
attr interpolationmode none
attr source encapPk
attr title "packets encapsulated, vector(packetBytes)"
vector 36 KFatTreeNew.pod[2].aggregateSwitch[1].eth[0].encap encapPk:vector(packetBytes) ETV
attr interpolationmode none
attr source encapPk
attr title "packets encapsulated, vector(packetBytes)"
vector 37 KFatTreeNew.pod[2].aggregateSwitch[1].eth[1].encap encapPk:vector(packetBytes) ETV
attr interpolationmode none
attr source encapPk
attr title "packets encapsulated, vector(packetBytes)"
vector 38 KFatTreeNew.pod[2].aggregateSwitch[1].eth[2].encap encapPk:vector(packetBytes) ETV
attr interpolationmode none
attr source encapPk
attr title "packets encapsulated, vector(packetBytes)"
vector 39 KFatTreeNew.pod[2].aggregateSwitch[1].eth[3].encap encapPk:vector(packetBytes) ETV
attr interpolationmode none
attr source encapPk
attr title "packets encapsulated, vector(packetBytes)"
vector 40 KFatTreeNew.pod[2].edgeSwitch[0].eth[0].encap encapPk:vector(packetBytes) ETV
attr interpolationmode none
attr source encapPk
attr title "packets encapsulated, vector(packetBytes)"
vector 41 KFatTreeNew.pod[2].edgeSwitch[0].eth[1].encap encapPk:vector(packetBytes) ETV
attr interpolationmode none
attr source encapPk
attr title "packets encapsulated, vector(packetBytes)"
vector 42 KFatTreeNew.pod[2].edgeSwitch[0].eth[2].encap encapPk:vector(packetBytes) ETV
attr interpolationmode none
attr source encapPk
attr title "packets encapsulated, vector(packetBytes)"
vector 43 KFatTreeNew.pod[2].edgeSwitch[0].eth[3].encap encapPk:vector(packetBytes) ETV
attr interpolationmode none
attr source encapPk
attr title "packets encapsulated, vector(packetBytes)"
vector 44 KFatTreeNew.pod[2].edgeSwitch[1].eth[0].encap encapPk:vector(packetBytes) ETV
attr interpolationmode none
attr source encapPk
attr title "packets encapsulated, vector(packetBytes)"
vector 45 KFatTreeNew.pod[2].edgeSwitch[1].eth[1].encap encapPk:vector(packetBytes) ETV
attr interpolationmode none
attr source encapPk
attr title "packets encapsulated, vector(packetBytes)"
vector 46 KFatTreeNew.pod[2].edgeSwitch[1].eth[2].encap encapPk:vector(packetBytes) ETV
attr interpolationmode none
attr source encapPk
attr title "packets encapsulated, vector(packetBytes)"
vector 47 KFatTreeNew.pod[2].edgeSwitch[1].eth[3].encap encapPk:vector(packetBytes) ETV
attr interpolationmode none
attr source encapPk
attr title "packets encapsulated, vector(packetBytes)"
vector 48 KFatTreeNew.pod[3].aggregateSwitch[0].eth[0].encap encapPk:vector(packetBytes) ETV
attr interpolationmode none
attr source encapPk
attr title "packets encapsulated, vector(packetBytes)"
vector 49 KFatTreeNew.pod[3].aggregateSwitch[0].eth[1].encap encapPk:vector(packetBytes) ETV
attr interpolationmode none
attr source encapPk
attr title "packets encapsulated, vector(packetBytes)"
vector 50 KFatTreeNew.pod[3].aggregateSwitch[0].eth[2].encap encapPk:vector(packetBytes) ETV
attr interpolationmode none
attr source encapPk
attr title "packets encapsulated, vector(packetBytes)"
vector 51 KFatTreeNew.pod[3].aggregateSwitch[0].eth[3].encap encapPk:vector(packetBytes) ETV
attr interpolationmode none
attr source encapPk
attr title "packets encapsulated, vector(packetBytes)"
vector 52 KFatTreeNew.pod[3].aggregateSwitch[1].eth[0].encap encapPk:vector(packetBytes) ETV
attr interpolationmode none
attr source encapPk
attr title "packets encapsulated, vector(packetBytes)"
vector 53 KFatTreeNew.pod[3].aggregateSwitch[1].eth[1].encap encapPk:vector(packetBytes) ETV
attr interpolationmode none
attr source encapPk
attr title "packets encapsulated, vector(packetBytes)"
vector 54 KFatTreeNew.pod[3].aggregateSwitch[1].eth[2].encap encapPk:vector(packetBytes) ETV
attr interpolationmode none
attr source encapPk
attr title "packets encapsulated, vector(packetBytes)"
vector 55 KFatTreeNew.pod[3].aggregateSwitch[1].eth[3].encap encapPk:vector(packetBytes) ETV
attr interpolationmode none
attr source encapPk
attr title "packets encapsulated, vector(packetBytes)"
vector 56 KFatTreeNew.pod[3].edgeSwitch[0].eth[0].encap encapPk:vector(packetBytes) ETV
attr interpolationmode none
attr source encapPk
attr title "packets encapsulated, vector(packetBytes)"
vector 57 KFatTreeNew.pod[3].edgeSwitch[0].eth[1].encap encapPk:vector(packetBytes) ETV
attr interpolationmode none
attr source encapPk
attr title "packets encapsulated, vector(packetBytes)"
vector 58 KFatTreeNew.pod[3].edgeSwitch[0].eth[2].encap encapPk:vector(packetBytes) ETV
attr interpolationmode none
attr source encapPk
attr title "packets encapsulated, vector(packetBytes)"
vector 59 KFatTreeNew.pod[3].edgeSwitch[0].eth[3].encap encapPk:vector(packetBytes) ETV
attr interpolationmode none
attr source encapPk
attr title "packets encapsulated, vector(packetBytes)"
vector 60 KFatTreeNew.pod[3].edgeSwitch[1].eth[0].encap encapPk:vector(packetBytes) ETV
attr interpolationmode none
attr source encapPk
attr title "packets encapsulated, vector(packetBytes)"
vector 61 KFatTreeNew.pod[3].edgeSwitch[1].eth[1].encap encapPk:vector(packetBytes) ETV
attr interpolationmode none
attr source encapPk
attr title "packets encapsulated, vector(packetBytes)"
vector 62 KFatTreeNew.pod[3].edgeSwitch[1].eth[2].encap encapPk:vector(packetBytes) ETV
attr interpolationmode none
attr source encapPk
attr title "packets encapsulated, vector(packetBytes)"
vector 63 KFatTreeNew.pod[3].edgeSwitch[1].eth[3].encap encapPk:vector(packetBytes) ETV
attr interpolationmode none
attr source encapPk
attr title "packets encapsulated, vector(packetBytes)"
vector 64 KFatTreeNew.hosts.client.eth[0].encap encapPk:vector(packetBytes) ETV
attr interpolationmode none
attr source encapPk
attr title "packets encapsulated, vector(packetBytes)"
vector 65 KFatTreeNew.hosts.coordinator.eth[0].encap encapPk:vector(packetBytes) ETV
attr interpolationmode none
attr source encapPk
attr title "packets encapsulated, vector(packetBytes)"
vector 66 KFatTreeNew.hosts.replica[0].eth[0].encap encapPk:vector(packetBytes) ETV
attr interpolationmode none
attr source encapPk
attr title "packets encapsulated, vector(packetBytes)"
vector 67 KFatTreeNew.hosts.replica[1].eth[0].encap encapPk:vector(packetBytes) ETV
attr interpolationmode none
attr source encapPk
attr title "packets encapsulated, vector(packetBytes)"
vector 68 KFatTreeNew.hosts.replica[2].eth[0].encap encapPk:vector(packetBytes) ETV
attr interpolationmode none
attr source encapPk
attr title "packets encapsulated, vector(packetBytes)"
vector 69 KFatTreeNew.hosts.replica[3].eth[0].encap encapPk:vector(packetBytes) ETV
attr interpolationmode none
attr source encapPk
attr title "packets encapsulated, vector(packetBytes)"
vector 70 KFatTreeNew.hosts.replica[4].eth[0].encap encapPk:vector(packetBytes) ETV
attr interpolationmode none
attr source encapPk
attr title "packets encapsulated, vector(packetBytes)"
vector 71 KFatTreeNew.hosts.replica[5].eth[0].encap encapPk:vector(packetBytes) ETV
attr interpolationmode none
attr source encapPk
attr title "packets encapsulated, vector(packetBytes)"
vector 72 KFatTreeNew.hosts.replica[6].eth[0].encap encapPk:vector(packetBytes) ETV
attr interpolationmode none
attr source encapPk
attr title "packets encapsulated, vector(packetBytes)"
vector 73 KFatTreeNew.hosts.replica[7].eth[0].encap encapPk:vector(packetBytes) ETV
attr interpolationmode none
attr source encapPk
attr title "packets encapsulated, vector(packetBytes)"
vector 74 KFatTreeNew.hosts.replica[8].eth[0].encap encapPk:vector(packetBytes) ETV
attr interpolationmode none
attr source encapPk
attr title "packets encapsulated, vector(packetBytes)"
vector 75 KFatTreeNew.hosts.replica[9].eth[0].encap encapPk:vector(packetBytes) ETV
attr interpolationmode none
attr source encapPk
attr title "packets encapsulated, vector(packetBytes)"
vector 76 KFatTreeNew.hosts.replica[10].eth[0].encap encapPk:vector(packetBytes) ETV
attr interpolationmode none
attr source encapPk
attr title "packets encapsulated, vector(packetBytes)"
vector 77 KFatTreeNew.hosts.replica[11].eth[0].encap encapPk:vector(packetBytes) ETV
attr interpolationmode none
attr source encapPk
attr title "packets encapsulated, vector(packetBytes)"
vector 78 KFatTreeNew.hosts.replica[12].eth[0].encap encapPk:vector(packetBytes) ETV
attr interpolationmode none
attr source encapPk
attr title "packets encapsulated, vector(packetBytes)"
vector 79 KFatTreeNew.hosts.replica[13].eth[0].encap encapPk:vector(packetBytes) ETV
attr interpolationmode none
attr source encapPk
attr title "packets encapsulated, vector(packetBytes)"
vector 80 KFatTreeNew.pod[0].aggregateSwitch[0].eth[0].mac packetReceivedFromUpper:vector(packetBytes) ETV
attr interpolationmode none
attr source packetReceivedFromUpper
attr title "packet bytes from higher layer, vector(packetBytes)"
vector 81 KFatTreeNew.pod[0].aggregateSwitch[0].eth[0].mac.queue packetPushed:vector(packetBytes) ETV
attr interpolationmode none
attr title "packet pushed, vector(packetBytes)"
vector 82 KFatTreeNew.pod[0].aggregateSwitch[0].eth[0].mac.queue queueLength:vector ETV
attr interpolationmode sample-hold
attr source "count(packetPushed) - count(packetPopped) - count(packetRemoved) - count(packetDropped)"
attr title "queue length, vector"
vector 83 KFatTreeNew.pod[0].aggregateSwitch[0].eth[0].mac.queue packetPopped:vector(packetBytes) ETV
attr interpolationmode none
attr title "packet popped, vector(packetBytes)"
vector 84 KFatTreeNew.pod[0].aggregateSwitch[0].eth[0].mac.queue queueingTime:vector ETV
attr interpolationmode none
attr source queueingTime(packetPopped)
attr title "queueing times, vector"
attr unit s
vector 85 KFatTreeNew.pod[0].aggregateSwitch[0].eth[1].mac packetReceivedFromUpper:vector(packetBytes) ETV
attr interpolationmode none
attr source packetReceivedFromUpper
attr title "packet bytes from higher layer, vector(packetBytes)"
vector 86 KFatTreeNew.pod[0].aggregateSwitch[0].eth[1].mac.queue packetPushed:vector(packetBytes) ETV
attr interpolationmode none
attr title "packet pushed, vector(packetBytes)"
vector 87 KFatTreeNew.pod[0].aggregateSwitch[0].eth[1].mac.queue queueLength:vector ETV
attr interpolationmode sample-hold
attr source "count(packetPushed) - count(packetPopped) - count(packetRemoved) - count(packetDropped)"
attr title "queue length, vector"
vector 88 KFatTreeNew.pod[0].aggregateSwitch[0].eth[1].mac.queue packetPopped:vector(packetBytes) ETV
attr interpolationmode none
attr title "packet popped, vector(packetBytes)"
vector 89 KFatTreeNew.pod[0].aggregateSwitch[0].eth[1].mac.queue queueingTime:vector ETV
attr interpolationmode none
attr source queueingTime(packetPopped)
attr title "queueing times, vector"
attr unit s
vector 90 KFatTreeNew.pod[0].aggregateSwitch[0].eth[2].mac packetReceivedFromUpper:vector(packetBytes) ETV
attr interpolationmode none
attr source packetReceivedFromUpper
attr title "packet bytes from higher layer, vector(packetBytes)"
vector 91 KFatTreeNew.pod[0].aggregateSwitch[0].eth[2].mac.queue packetPushed:vector(packetBytes) ETV
attr interpolationmode none
attr title "packet pushed, vector(packetBytes)"
vector 92 KFatTreeNew.pod[0].aggregateSwitch[0].eth[2].mac.queue queueLength:vector ETV
attr interpolationmode sample-hold
attr source "count(packetPushed) - count(packetPopped) - count(packetRemoved) - count(packetDropped)"
attr title "queue length, vector"
vector 93 KFatTreeNew.pod[0].aggregateSwitch[0].eth[2].mac.queue packetPopped:vector(packetBytes) ETV
attr interpolationmode none
attr title "packet popped, vector(packetBytes)"
vector 94 KFatTreeNew.pod[0].aggregateSwitch[0].eth[2].mac.queue queueingTime:vector ETV
attr interpolationmode none
attr source queueingTime(packetPopped)
attr title "queueing times, vector"
attr unit s
vector 95 KFatTreeNew.pod[0].aggregateSwitch[0].eth[3].mac packetReceivedFromUpper:vector(packetBytes) ETV
attr interpolationmode none
attr source packetReceivedFromUpper
attr title "packet bytes from higher layer, vector(packetBytes)"
vector 96 KFatTreeNew.pod[0].aggregateSwitch[0].eth[3].mac.queue packetPushed:vector(packetBytes) ETV
attr interpolationmode none
attr title "packet pushed, vector(packetBytes)"
vector 97 KFatTreeNew.pod[0].aggregateSwitch[0].eth[3].mac.queue queueLength:vector ETV
attr interpolationmode sample-hold
attr source "count(packetPushed) - count(packetPopped) - count(packetRemoved) - count(packetDropped)"
attr title "queue length, vector"
vector 98 KFatTreeNew.pod[0].aggregateSwitch[0].eth[3].mac.queue packetPopped:vector(packetBytes) ETV
attr interpolationmode none
attr title "packet popped, vector(packetBytes)"
vector 99 KFatTreeNew.pod[0].aggregateSwitch[0].eth[3].mac.queue queueingTime:vector ETV
attr interpolationmode none
attr source queueingTime(packetPopped)
attr title "queueing times, vector"
attr unit s
vector 100 KFatTreeNew.pod[0].aggregateSwitch[1].eth[0].mac packetReceivedFromUpper:vector(packetBytes) ETV
attr interpolationmode none
attr source packetReceivedFromUpper
attr title "packet bytes from higher layer, vector(packetBytes)"
vector 101 KFatTreeNew.pod[0].aggregateSwitch[1].eth[0].mac.queue packetPushed:vector(packetBytes) ETV
attr interpolationmode none
attr title "packet pushed, vector(packetBytes)"
vector 102 KFatTreeNew.pod[0].aggregateSwitch[1].eth[0].mac.queue queueLength:vector ETV
attr interpolationmode sample-hold
attr source "count(packetPushed) - count(packetPopped) - count(packetRemoved) - count(packetDropped)"
attr title "queue length, vector"
vector 103 KFatTreeNew.pod[0].aggregateSwitch[1].eth[0].mac.queue packetPopped:vector(packetBytes) ETV
attr interpolationmode none
attr title "packet popped, vector(packetBytes)"
vector 104 KFatTreeNew.pod[0].aggregateSwitch[1].eth[0].mac.queue queueingTime:vector ETV
attr interpolationmode none
attr source queueingTime(packetPopped)
attr title "queueing times, vector"
attr unit s
vector 105 KFatTreeNew.pod[0].aggregateSwitch[1].eth[1].mac packetReceivedFromUpper:vector(packetBytes) ETV
attr interpolationmode none
attr source packetReceivedFromUpper
attr title "packet bytes from higher layer, vector(packetBytes)"
vector 106 KFatTreeNew.pod[0].aggregateSwitch[1].eth[1].mac.queue packetPushed:vector(packetBytes) ETV
attr interpolationmode none
attr title "packet pushed, vector(packetBytes)"
vector 107 KFatTreeNew.pod[0].aggregateSwitch[1].eth[1].mac.queue queueLength:vector ETV
attr interpolationmode sample-hold
attr source "count(packetPushed) - count(packetPopped) - count(packetRemoved) - count(packetDropped)"
attr title "queue length, vector"
vector 108 KFatTreeNew.pod[0].aggregateSwitch[1].eth[1].mac.queue packetPopped:vector(packetBytes) ETV
attr interpolationmode none
attr title "packet popped, vector(packetBytes)"
vector 109 KFatTreeNew.pod[0].aggregateSwitch[1].eth[1].mac.queue queueingTime:vector ETV
attr interpolationmode none
attr source queueingTime(packetPopped)
attr title "queueing times, vector"
attr unit s
vector 110 KFatTreeNew.pod[0].aggregateSwitch[1].eth[2].mac packetReceivedFromUpper:vector(packetBytes) ETV
attr interpolationmode none
attr source packetReceivedFromUpper
attr title "packet bytes from higher layer, vector(packetBytes)"
vector 111 KFatTreeNew.pod[0].aggregateSwitch[1].eth[2].mac.queue packetPushed:vector(packetBytes) ETV
attr interpolationmode none
attr title "packet pushed, vector(packetBytes)"
vector 112 KFatTreeNew.pod[0].aggregateSwitch[1].eth[2].mac.queue queueLength:vector ETV
attr interpolationmode sample-hold
attr source "count(packetPushed) - count(packetPopped) - count(packetRemoved) - count(packetDropped)"
attr title "queue length, vector"
vector 113 KFatTreeNew.pod[0].aggregateSwitch[1].eth[2].mac.queue packetPopped:vector(packetBytes) ETV
attr interpolationmode none
attr title "packet popped, vector(packetBytes)"
vector 114 KFatTreeNew.pod[0].aggregateSwitch[1].eth[2].mac.queue queueingTime:vector ETV
attr interpolationmode none
attr source queueingTime(packetPopped)
attr title "queueing times, vector"
attr unit s
vector 115 KFatTreeNew.pod[0].aggregateSwitch[1].eth[3].mac packetReceivedFromUpper:vector(packetBytes) ETV
attr interpolationmode none
attr source packetReceivedFromUpper
attr title "packet bytes from higher layer, vector(packetBytes)"
vector 116 KFatTreeNew.pod[0].aggregateSwitch[1].eth[3].mac.queue packetPushed:vector(packetBytes) ETV
attr interpolationmode none
attr title "packet pushed, vector(packetBytes)"
vector 117 KFatTreeNew.pod[0].aggregateSwitch[1].eth[3].mac.queue queueLength:vector ETV
attr interpolationmode sample-hold
attr source "count(packetPushed) - count(packetPopped) - count(packetRemoved) - count(packetDropped)"
attr title "queue length, vector"
vector 118 KFatTreeNew.pod[0].aggregateSwitch[1].eth[3].mac.queue packetPopped:vector(packetBytes) ETV
attr interpolationmode none
attr title "packet popped, vector(packetBytes)"
vector 119 KFatTreeNew.pod[0].aggregateSwitch[1].eth[3].mac.queue queueingTime:vector ETV
attr interpolationmode none
attr source queueingTime(packetPopped)
attr title "queueing times, vector"
attr unit s
vector 120 KFatTreeNew.pod[0].edgeSwitch[0].eth[0].mac packetReceivedFromUpper:vector(packetBytes) ETV
attr interpolationmode none
attr source packetReceivedFromUpper
attr title "packet bytes from higher layer, vector(packetBytes)"
vector 121 KFatTreeNew.pod[0].edgeSwitch[0].eth[0].mac.queue packetPushed:vector(packetBytes) ETV
attr interpolationmode none
attr title "packet pushed, vector(packetBytes)"
vector 122 KFatTreeNew.pod[0].edgeSwitch[0].eth[0].mac.queue queueLength:vector ETV
attr interpolationmode sample-hold
attr source "count(packetPushed) - count(packetPopped) - count(packetRemoved) - count(packetDropped)"
attr title "queue length, vector"
vector 123 KFatTreeNew.pod[0].edgeSwitch[0].eth[0].mac.queue packetPopped:vector(packetBytes) ETV
attr interpolationmode none
attr title "packet popped, vector(packetBytes)"
vector 124 KFatTreeNew.pod[0].edgeSwitch[0].eth[0].mac.queue queueingTime:vector ETV
attr interpolationmode none
attr source queueingTime(packetPopped)
attr title "queueing times, vector"
attr unit s
vector 125 KFatTreeNew.pod[0].edgeSwitch[0].eth[1].mac packetReceivedFromUpper:vector(packetBytes) ETV
attr interpolationmode none
attr source packetReceivedFromUpper
attr title "packet bytes from higher layer, vector(packetBytes)"
vector 126 KFatTreeNew.pod[0].edgeSwitch[0].eth[1].mac.queue packetPushed:vector(packetBytes) ETV
attr interpolationmode none
attr title "packet pushed, vector(packetBytes)"
vector 127 KFatTreeNew.pod[0].edgeSwitch[0].eth[1].mac.queue queueLength:vector ETV
attr interpolationmode sample-hold
attr source "count(packetPushed) - count(packetPopped) - count(packetRemoved) - count(packetDropped)"
attr title "queue length, vector"
vector 128 KFatTreeNew.pod[0].edgeSwitch[0].eth[1].mac.queue packetPopped:vector(packetBytes) ETV
attr interpolationmode none
attr title "packet popped, vector(packetBytes)"
vector 129 KFatTreeNew.pod[0].edgeSwitch[0].eth[1].mac.queue queueingTime:vector ETV
attr interpolationmode none
attr source queueingTime(packetPopped)
attr title "queueing times, vector"
attr unit s
vector 130 KFatTreeNew.pod[0].edgeSwitch[0].eth[2].mac packetReceivedFromUpper:vector(packetBytes) ETV
attr interpolationmode none
attr source packetReceivedFromUpper
attr title "packet bytes from higher layer, vector(packetBytes)"
vector 131 KFatTreeNew.pod[0].edgeSwitch[0].eth[2].mac.queue packetPushed:vector(packetBytes) ETV
attr interpolationmode none
attr title "packet pushed, vector(packetBytes)"
vector 132 KFatTreeNew.pod[0].edgeSwitch[0].eth[2].mac.queue queueLength:vector ETV
attr interpolationmode sample-hold
attr source "count(packetPushed) - count(packetPopped) - count(packetRemoved) - count(packetDropped)"
attr title "queue length, vector"
vector 133 KFatTreeNew.pod[0].edgeSwitch[0].eth[2].mac.queue packetPopped:vector(packetBytes) ETV
attr interpolationmode none
attr title "packet popped, vector(packetBytes)"
vector 134 KFatTreeNew.pod[0].edgeSwitch[0].eth[2].mac.queue queueingTime:vector ETV
attr interpolationmode none
attr source queueingTime(packetPopped)
attr title "queueing times, vector"
attr unit s
vector 135 KFatTreeNew.pod[0].edgeSwitch[0].eth[3].mac packetReceivedFromUpper:vector(packetBytes) ETV
attr interpolationmode none
attr source packetReceivedFromUpper
attr title "packet bytes from higher layer, vector(packetBytes)"
vector 136 KFatTreeNew.pod[0].edgeSwitch[0].eth[3].mac.queue packetPushed:vector(packetBytes) ETV
attr interpolationmode none
attr title "packet pushed, vector(packetBytes)"
vector 137 KFatTreeNew.pod[0].edgeSwitch[0].eth[3].mac.queue queueLength:vector ETV
attr interpolationmode sample-hold
attr source "count(packetPushed) - count(packetPopped) - count(packetRemoved) - count(packetDropped)"
attr title "queue length, vector"
vector 138 KFatTreeNew.pod[0].edgeSwitch[0].eth[3].mac.queue packetPopped:vector(packetBytes) ETV
attr interpolationmode none
attr title "packet popped, vector(packetBytes)"
vector 139 KFatTreeNew.pod[0].edgeSwitch[0].eth[3].mac.queue queueingTime:vector ETV
attr interpolationmode none
attr source queueingTime(packetPopped)
attr title "queueing times, vector"
attr unit s
vector 140 KFatTreeNew.pod[0].edgeSwitch[1].eth[0].mac packetReceivedFromUpper:vector(packetBytes) ETV
attr interpolationmode none
attr source packetReceivedFromUpper
attr title "packet bytes from higher layer, vector(packetBytes)"
vector 141 KFatTreeNew.pod[0].edgeSwitch[1].eth[0].mac.queue packetPushed:vector(packetBytes) ETV
attr interpolationmode none
attr title "packet pushed, vector(packetBytes)"
vector 142 KFatTreeNew.pod[0].edgeSwitch[1].eth[0].mac.queue queueLength:vector ETV
attr interpolationmode sample-hold
attr source "count(packetPushed) - count(packetPopped) - count(packetRemoved) - count(packetDropped)"
attr title "queue length, vector"
vector 143 KFatTreeNew.pod[0].edgeSwitch[1].eth[0].mac.queue packetPopped:vector(packetBytes) ETV
attr interpolationmode none
attr title "packet popped, vector(packetBytes)"
vector 144 KFatTreeNew.pod[0].edgeSwitch[1].eth[0].mac.queue queueingTime:vector ETV
attr interpolationmode none
attr source queueingTime(packetPopped)
attr title "queueing times, vector"
attr unit s
vector 145 KFatTreeNew.pod[0].edgeSwitch[1].eth[1].mac packetReceivedFromUpper:vector(packetBytes) ETV
attr interpolationmode none
attr source packetReceivedFromUpper
attr title "packet bytes from higher layer, vector(packetBytes)"
vector 146 KFatTreeNew.pod[0].edgeSwitch[1].eth[1].mac.queue packetPushed:vector(packetBytes) ETV
attr interpolationmode none
attr title "packet pushed, vector(packetBytes)"
vector 147 KFatTreeNew.pod[0].edgeSwitch[1].eth[1].mac.queue queueLength:vector ETV
attr interpolationmode sample-hold
attr source "count(packetPushed) - count(packetPopped) - count(packetRemoved) - count(packetDropped)"
attr title "queue length, vector"
vector 148 KFatTreeNew.pod[0].edgeSwitch[1].eth[1].mac.queue packetPopped:vector(packetBytes) ETV
attr interpolationmode none
attr title "packet popped, vector(packetBytes)"
vector 149 KFatTreeNew.pod[0].edgeSwitch[1].eth[1].mac.queue queueingTime:vector ETV
attr interpolationmode none
attr source queueingTime(packetPopped)
attr title "queueing times, vector"
attr unit s
vector 150 KFatTreeNew.pod[0].edgeSwitch[1].eth[2].mac packetReceivedFromUpper:vector(packetBytes) ETV
attr interpolationmode none
attr source packetReceivedFromUpper
attr title "packet bytes from higher layer, vector(packetBytes)"
vector 151 KFatTreeNew.pod[0].edgeSwitch[1].eth[2].mac.queue packetPushed:vector(packetBytes) ETV
attr interpolationmode none
attr title "packet pushed, vector(packetBytes)"
vector 152 KFatTreeNew.pod[0].edgeSwitch[1].eth[2].mac.queue queueLength:vector ETV
attr interpolationmode sample-hold
attr source "count(packetPushed) - count(packetPopped) - count(packetRemoved) - count(packetDropped)"
attr title "queue length, vector"
vector 153 KFatTreeNew.pod[0].edgeSwitch[1].eth[2].mac.queue packetPopped:vector(packetBytes) ETV
attr interpolationmode none
attr title "packet popped, vector(packetBytes)"
vector 154 KFatTreeNew.pod[0].edgeSwitch[1].eth[2].mac.queue queueingTime:vector ETV
attr interpolationmode none
attr source queueingTime(packetPopped)
attr title "queueing times, vector"
attr unit s
vector 155 KFatTreeNew.pod[0].edgeSwitch[1].eth[3].mac packetReceivedFromUpper:vector(packetBytes) ETV
attr interpolationmode none
attr source packetReceivedFromUpper
attr title "packet bytes from higher layer, vector(packetBytes)"
vector 156 KFatTreeNew.pod[0].edgeSwitch[1].eth[3].mac.queue packetPushed:vector(packetBytes) ETV
attr interpolationmode none
attr title "packet pushed, vector(packetBytes)"
vector 157 KFatTreeNew.pod[0].edgeSwitch[1].eth[3].mac.queue queueLength:vector ETV
attr interpolationmode sample-hold
attr source "count(packetPushed) - count(packetPopped) - count(packetRemoved) - count(packetDropped)"
attr title "queue length, vector"
vector 158 KFatTreeNew.pod[0].edgeSwitch[1].eth[3].mac.queue packetPopped:vector(packetBytes) ETV
attr interpolationmode none
attr title "packet popped, vector(packetBytes)"
vector 159 KFatTreeNew.pod[0].edgeSwitch[1].eth[3].mac.queue queueingTime:vector ETV
attr interpolationmode none
attr source queueingTime(packetPopped)
attr title "queueing times, vector"
attr unit s
vector 160 KFatTreeNew.pod[1].aggregateSwitch[0].eth[0].mac packetReceivedFromUpper:vector(packetBytes) ETV
attr interpolationmode none
attr source packetReceivedFromUpper
attr title "packet bytes from higher layer, vector(packetBytes)"
vector 161 KFatTreeNew.pod[1].aggregateSwitch[0].eth[0].mac.queue packetPushed:vector(packetBytes) ETV
attr interpolationmode none
attr title "packet pushed, vector(packetBytes)"
vector 162 KFatTreeNew.pod[1].aggregateSwitch[0].eth[0].mac.queue queueLength:vector ETV
attr interpolationmode sample-hold
attr source "count(packetPushed) - count(packetPopped) - count(packetRemoved) - count(packetDropped)"
attr title "queue length, vector"
vector 163 KFatTreeNew.pod[1].aggregateSwitch[0].eth[0].mac.queue packetPopped:vector(packetBytes) ETV
attr interpolationmode none
attr title "packet popped, vector(packetBytes)"
vector 164 KFatTreeNew.pod[1].aggregateSwitch[0].eth[0].mac.queue queueingTime:vector ETV
attr interpolationmode none
attr source queueingTime(packetPopped)
attr title "queueing times, vector"
attr unit s
vector 165 KFatTreeNew.pod[1].aggregateSwitch[0].eth[1].mac packetReceivedFromUpper:vector(packetBytes) ETV
attr interpolationmode none
attr source packetReceivedFromUpper
attr title "packet bytes from higher layer, vector(packetBytes)"
vector 166 KFatTreeNew.pod[1].aggregateSwitch[0].eth[1].mac.queue packetPushed:vector(packetBytes) ETV
attr interpolationmode none
attr title "packet pushed, vector(packetBytes)"
vector 167 KFatTreeNew.pod[1].aggregateSwitch[0].eth[1].mac.queue queueLength:vector ETV
attr interpolationmode sample-hold
attr source "count(packetPushed) - count(packetPopped) - count(packetRemoved) - count(packetDropped)"
attr title "queue length, vector"
vector 168 KFatTreeNew.pod[1].aggregateSwitch[0].eth[1].mac.queue packetPopped:vector(packetBytes) ETV
attr interpolationmode none
attr title "packet popped, vector(packetBytes)"
vector 169 KFatTreeNew.pod[1].aggregateSwitch[0].eth[1].mac.queue queueingTime:vector ETV
attr interpolationmode none
attr source queueingTime(packetPopped)
attr title "queueing times, vector"
attr unit s
vector 170 KFatTreeNew.pod[1].aggregateSwitch[0].eth[2].mac packetReceivedFromUpper:vector(packetBytes) ETV
attr interpolationmode none
attr source packetReceivedFromUpper
attr title "packet bytes from higher layer, vector(packetBytes)"
vector 171 KFatTreeNew.pod[1].aggregateSwitch[0].eth[2].mac.queue packetPushed:vector(packetBytes) ETV
attr interpolationmode none
attr title "packet pushed, vector(packetBytes)"
vector 172 KFatTreeNew.pod[1].aggregateSwitch[0].eth[2].mac.queue queueLength:vector ETV
attr interpolationmode sample-hold
attr source "count(packetPushed) - count(packetPopped) - count(packetRemoved) - count(packetDropped)"
attr title "queue length, vector"
vector 173 KFatTreeNew.pod[1].aggregateSwitch[0].eth[2].mac.queue packetPopped:vector(packetBytes) ETV
attr interpolationmode none
attr title "packet popped, vector(packetBytes)"
vector 174 KFatTreeNew.pod[1].aggregateSwitch[0].eth[2].mac.queue queueingTime:vector ETV
attr interpolationmode none
attr source queueingTime(packetPopped)
attr title "queueing times, vector"
attr unit s
vector 175 KFatTreeNew.pod[1].aggregateSwitch[0].eth[3].mac packetReceivedFromUpper:vector(packetBytes) ETV
attr interpolationmode none
attr source packetReceivedFromUpper
attr title "packet bytes from higher layer, vector(packetBytes)"
vector 176 KFatTreeNew.pod[1].aggregateSwitch[0].eth[3].mac.queue packetPushed:vector(packetBytes) ETV
attr interpolationmode none
attr title "packet pushed, vector(packetBytes)"
vector 177 KFatTreeNew.pod[1].aggregateSwitch[0].eth[3].mac.queue queueLength:vector ETV
attr interpolationmode sample-hold
attr source "count(packetPushed) - count(packetPopped) - count(packetRemoved) - count(packetDropped)"
attr title "queue length, vector"
vector 178 KFatTreeNew.pod[1].aggregateSwitch[0].eth[3].mac.queue packetPopped:vector(packetBytes) ETV
attr interpolationmode none
attr title "packet popped, vector(packetBytes)"
vector 179 KFatTreeNew.pod[1].aggregateSwitch[0].eth[3].mac.queue queueingTime:vector ETV
attr interpolationmode none
attr source queueingTime(packetPopped)
attr title "queueing times, vector"
attr unit s
vector 180 KFatTreeNew.pod[1].aggregateSwitch[1].eth[0].mac packetReceivedFromUpper:vector(packetBytes) ETV
attr interpolationmode none
attr source packetReceivedFromUpper
attr title "packet bytes from higher layer, vector(packetBytes)"
vector 181 KFatTreeNew.pod[1].aggregateSwitch[1].eth[0].mac.queue packetPushed:vector(packetBytes) ETV
attr interpolationmode none
attr title "packet pushed, vector(packetBytes)"
vector 182 KFatTreeNew.pod[1].aggregateSwitch[1].eth[0].mac.queue queueLength:vector ETV
attr interpolationmode sample-hold
attr source "count(packetPushed) - count(packetPopped) - count(packetRemoved) - count(packetDropped)"
attr title "queue length, vector"
vector 183 KFatTreeNew.pod[1].aggregateSwitch[1].eth[0].mac.queue packetPopped:vector(packetBytes) ETV
attr interpolationmode none
attr title "packet popped, vector(packetBytes)"
vector 184 KFatTreeNew.pod[1].aggregateSwitch[1].eth[0].mac.queue queueingTime:vector ETV
attr interpolationmode none
attr source queueingTime(packetPopped)
attr title "queueing times, vector"
attr unit s
vector 185 KFatTreeNew.pod[1].aggregateSwitch[1].eth[1].mac packetReceivedFromUpper:vector(packetBytes) ETV
attr interpolationmode none
attr source packetReceivedFromUpper
attr title "packet bytes from higher layer, vector(packetBytes)"
vector 186 KFatTreeNew.pod[1].aggregateSwitch[1].eth[1].mac.queue packetPushed:vector(packetBytes) ETV
attr interpolationmode none
attr title "packet pushed, vector(packetBytes)"
vector 187 KFatTreeNew.pod[1].aggregateSwitch[1].eth[1].mac.queue queueLength:vector ETV
attr interpolationmode sample-hold
attr source "count(packetPushed) - count(packetPopped) - count(packetRemoved) - count(packetDropped)"
attr title "queue length, vector"
vector 188 KFatTreeNew.pod[1].aggregateSwitch[1].eth[1].mac.queue packetPopped:vector(packetBytes) ETV
attr interpolationmode none
attr title "packet popped, vector(packetBytes)"
vector 189 KFatTreeNew.pod[1].aggregateSwitch[1].eth[1].mac.queue queueingTime:vector ETV
attr interpolationmode none
attr source queueingTime(packetPopped)
attr title "queueing times, vector"
attr unit s
vector 190 KFatTreeNew.pod[1].aggregateSwitch[1].eth[2].mac packetReceivedFromUpper:vector(packetBytes) ETV
attr interpolationmode none
attr source packetReceivedFromUpper
attr title "packet bytes from higher layer, vector(packetBytes)"
vector 191 KFatTreeNew.pod[1].aggregateSwitch[1].eth[2].mac.queue packetPushed:vector(packetBytes) ETV
attr interpolationmode none
attr title "packet pushed, vector(packetBytes)"
vector 192 KFatTreeNew.pod[1].aggregateSwitch[1].eth[2].mac.queue queueLength:vector ETV
attr interpolationmode sample-hold
attr source "count(packetPushed) - count(packetPopped) - count(packetRemoved) - count(packetDropped)"
attr title "queue length, vector"
vector 193 KFatTreeNew.pod[1].aggregateSwitch[1].eth[2].mac.queue packetPopped:vector(packetBytes) ETV
attr interpolationmode none
attr title "packet popped, vector(packetBytes)"
vector 194 KFatTreeNew.pod[1].aggregateSwitch[1].eth[2].mac.queue queueingTime:vector ETV
attr interpolationmode none
attr source queueingTime(packetPopped)
attr title "queueing times, vector"
attr unit s
vector 195 KFatTreeNew.pod[1].aggregateSwitch[1].eth[3].mac packetReceivedFromUpper:vector(packetBytes) ETV
attr interpolationmode none
attr source packetReceivedFromUpper
attr title "packet bytes from higher layer, vector(packetBytes)"
vector 196 KFatTreeNew.pod[1].aggregateSwitch[1].eth[3].mac.queue packetPushed:vector(packetBytes) ETV
attr interpolationmode none
attr title "packet pushed, vector(packetBytes)"
vector 197 KFatTreeNew.pod[1].aggregateSwitch[1].eth[3].mac.queue queueLength:vector ETV
attr interpolationmode sample-hold
attr source "count(packetPushed) - count(packetPopped) - count(packetRemoved) - count(packetDropped)"
attr title "queue length, vector"
vector 198 KFatTreeNew.pod[1].aggregateSwitch[1].eth[3].mac.queue packetPopped:vector(packetBytes) ETV
attr interpolationmode none
attr title "packet popped, vector(packetBytes)"
vector 199 KFatTreeNew.pod[1].aggregateSwitch[1].eth[3].mac.queue queueingTime:vector ETV
attr interpolationmode none
attr source queueingTime(packetPopped)
attr title "queueing times, vector"
attr unit s
vector 200 KFatTreeNew.pod[1].edgeSwitch[0].eth[0].mac packetReceivedFromUpper:vector(packetBytes) ETV
attr interpolationmode none
attr source packetReceivedFromUpper
attr title "packet bytes from higher layer, vector(packetBytes)"
vector 201 KFatTreeNew.pod[1].edgeSwitch[0].eth[0].mac.queue packetPushed:vector(packetBytes) ETV
attr interpolationmode none
attr title "packet pushed, vector(packetBytes)"
vector 202 KFatTreeNew.pod[1].edgeSwitch[0].eth[0].mac.queue queueLength:vector ETV
attr interpolationmode sample-hold
attr source "count(packetPushed) - count(packetPopped) - count(packetRemoved) - count(packetDropped)"
attr title "queue length, vector"
vector 203 KFatTreeNew.pod[1].edgeSwitch[0].eth[0].mac.queue packetPopped:vector(packetBytes) ETV
attr interpolationmode none
attr title "packet popped, vector(packetBytes)"
vector 204 KFatTreeNew.pod[1].edgeSwitch[0].eth[0].mac.queue queueingTime:vector ETV
attr interpolationmode none
attr source queueingTime(packetPopped)
attr title "queueing times, vector"
attr unit s
vector 205 KFatTreeNew.pod[1].edgeSwitch[0].eth[1].mac packetReceivedFromUpper:vector(packetBytes) ETV
attr interpolationmode none
attr source packetReceivedFromUpper
attr title "packet bytes from higher layer, vector(packetBytes)"
vector 206 KFatTreeNew.pod[1].edgeSwitch[0].eth[1].mac.queue packetPushed:vector(packetBytes) ETV
attr interpolationmode none
attr title "packet pushed, vector(packetBytes)"
vector 207 KFatTreeNew.pod[1].edgeSwitch[0].eth[1].mac.queue queueLength:vector ETV
attr interpolationmode sample-hold
attr source "count(packetPushed) - count(packetPopped) - count(packetRemoved) - count(packetDropped)"
attr title "queue length, vector"
vector 208 KFatTreeNew.pod[1].edgeSwitch[0].eth[1].mac.queue packetPopped:vector(packetBytes) ETV
attr interpolationmode none
attr title "packet popped, vector(packetBytes)"
vector 209 KFatTreeNew.pod[1].edgeSwitch[0].eth[1].mac.queue queueingTime:vector ETV
attr interpolationmode none
attr source queueingTime(packetPopped)
attr title "queueing times, vector"
attr unit s
vector 210 KFatTreeNew.pod[1].edgeSwitch[0].eth[2].mac packetReceivedFromUpper:vector(packetBytes) ETV
attr interpolationmode none
attr source packetReceivedFromUpper
attr title "packet bytes from higher layer, vector(packetBytes)"
vector 211 KFatTreeNew.pod[1].edgeSwitch[0].eth[2].mac.queue packetPushed:vector(packetBytes) ETV
attr interpolationmode none
attr title "packet pushed, vector(packetBytes)"
vector 212 KFatTreeNew.pod[1].edgeSwitch[0].eth[2].mac.queue queueLength:vector ETV
attr interpolationmode sample-hold
attr source "count(packetPushed) - count(packetPopped) - count(packetRemoved) - count(packetDropped)"
attr title "queue length, vector"
vector 213 KFatTreeNew.pod[1].edgeSwitch[0].eth[2].mac.queue packetPopped:vector(packetBytes) ETV
attr interpolationmode none
attr title "packet popped, vector(packetBytes)"
vector 214 KFatTreeNew.pod[1].edgeSwitch[0].eth[2].mac.queue queueingTime:vector ETV
attr interpolationmode none
attr source queueingTime(packetPopped)
attr title "queueing times, vector"
attr unit s
vector 215 KFatTreeNew.pod[1].edgeSwitch[0].eth[3].mac packetReceivedFromUpper:vector(packetBytes) ETV
attr interpolationmode none
attr source packetReceivedFromUpper
attr title "packet bytes from higher layer, vector(packetBytes)"
vector 216 KFatTreeNew.pod[1].edgeSwitch[0].eth[3].mac.queue packetPushed:vector(packetBytes) ETV
attr interpolationmode none
attr title "packet pushed, vector(packetBytes)"
vector 217 KFatTreeNew.pod[1].edgeSwitch[0].eth[3].mac.queue queueLength:vector ETV
attr interpolationmode sample-hold
attr source "count(packetPushed) - count(packetPopped) - count(packetRemoved) - count(packetDropped)"
attr title "queue length, vector"
vector 218 KFatTreeNew.pod[1].edgeSwitch[0].eth[3].mac.queue packetPopped:vector(packetBytes) ETV
attr interpolationmode none
attr title "packet popped, vector(packetBytes)"
vector 219 KFatTreeNew.pod[1].edgeSwitch[0].eth[3].mac.queue queueingTime:vector ETV
attr interpolationmode none
attr source queueingTime(packetPopped)
attr title "queueing times, vector"
attr unit s
vector 220 KFatTreeNew.pod[1].edgeSwitch[1].eth[0].mac packetReceivedFromUpper:vector(packetBytes) ETV
attr interpolationmode none
attr source packetReceivedFromUpper
attr title "packet bytes from higher layer, vector(packetBytes)"
vector 221 KFatTreeNew.pod[1].edgeSwitch[1].eth[0].mac.queue packetPushed:vector(packetBytes) ETV
attr interpolationmode none
attr title "packet pushed, vector(packetBytes)"
vector 222 KFatTreeNew.pod[1].edgeSwitch[1].eth[0].mac.queue queueLength:vector ETV
attr interpolationmode sample-hold
attr source "count(packetPushed) - count(packetPopped) - count(packetRemoved) - count(packetDropped)"
attr title "queue length, vector"
vector 223 KFatTreeNew.pod[1].edgeSwitch[1].eth[0].mac.queue packetPopped:vector(packetBytes) ETV
attr interpolationmode none
attr title "packet popped, vector(packetBytes)"
vector 224 KFatTreeNew.pod[1].edgeSwitch[1].eth[0].mac.queue queueingTime:vector ETV
attr interpolationmode none
attr source queueingTime(packetPopped)
attr title "queueing times, vector"
attr unit s
vector 225 KFatTreeNew.pod[1].edgeSwitch[1].eth[1].mac packetReceivedFromUpper:vector(packetBytes) ETV
attr interpolationmode none
attr source packetReceivedFromUpper
attr title "packet bytes from higher layer, vector(packetBytes)"
vector 226 KFatTreeNew.pod[1].edgeSwitch[1].eth[1].mac.queue packetPushed:vector(packetBytes) ETV
attr interpolationmode none
attr title "packet pushed, vector(packetBytes)"
vector 227 KFatTreeNew.pod[1].edgeSwitch[1].eth[1].mac.queue queueLength:vector ETV
attr interpolationmode sample-hold
attr source "count(packetPushed) - count(packetPopped) - count(packetRemoved) - count(packetDropped)"
attr title "queue length, vector"
vector 228 KFatTreeNew.pod[1].edgeSwitch[1].eth[1].mac.queue packetPopped:vector(packetBytes) ETV
attr interpolationmode none
attr title "packet popped, vector(packetBytes)"
vector 229 KFatTreeNew.pod[1].edgeSwitch[1].eth[1].mac.queue queueingTime:vector ETV
attr interpolationmode none
attr source queueingTime(packetPopped)
attr title "queueing times, vector"
attr unit s
vector 230 KFatTreeNew.pod[1].edgeSwitch[1].eth[2].mac packetReceivedFromUpper:vector(packetBytes) ETV
attr interpolationmode none
attr source packetReceivedFromUpper
attr title "packet bytes from higher layer, vector(packetBytes)"
vector 231 KFatTreeNew.pod[1].edgeSwitch[1].eth[2].mac.queue packetPushed:vector(packetBytes) ETV
attr interpolationmode none
attr title "packet pushed, vector(packetBytes)"
vector 232 KFatTreeNew.pod[1].edgeSwitch[1].eth[2].mac.queue queueLength:vector ETV
attr interpolationmode sample-hold
attr source "count(packetPushed) - count(packetPopped) - count(packetRemoved) - count(packetDropped)"
attr title "queue length, vector"
vector 233 KFatTreeNew.pod[1].edgeSwitch[1].eth[2].mac.queue packetPopped:vector(packetBytes) ETV
attr interpolationmode none
attr title "packet popped, vector(packetBytes)"
vector 234 KFatTreeNew.pod[1].edgeSwitch[1].eth[2].mac.queue queueingTime:vector ETV
attr interpolationmode none
attr source queueingTime(packetPopped)
attr title "queueing times, vector"
attr unit s
vector 235 KFatTreeNew.pod[1].edgeSwitch[1].eth[3].mac packetReceivedFromUpper:vector(packetBytes) ETV
attr interpolationmode none
attr source packetReceivedFromUpper
attr title "packet bytes from higher layer, vector(packetBytes)"
vector 236 KFatTreeNew.pod[1].edgeSwitch[1].eth[3].mac.queue packetPushed:vector(packetBytes) ETV
attr interpolationmode none
attr title "packet pushed, vector(packetBytes)"
vector 237 KFatTreeNew.pod[1].edgeSwitch[1].eth[3].mac.queue queueLength:vector ETV
attr interpolationmode sample-hold
attr source "count(packetPushed) - count(packetPopped) - count(packetRemoved) - count(packetDropped)"
attr title "queue length, vector"
vector 238 KFatTreeNew.pod[1].edgeSwitch[1].eth[3].mac.queue packetPopped:vector(packetBytes) ETV
attr interpolationmode none
attr title "packet popped, vector(packetBytes)"
vector 239 KFatTreeNew.pod[1].edgeSwitch[1].eth[3].mac.queue queueingTime:vector ETV
attr interpolationmode none
attr source queueingTime(packetPopped)
attr title "queueing times, vector"
attr unit s
vector 240 KFatTreeNew.pod[2].aggregateSwitch[0].eth[0].mac packetReceivedFromUpper:vector(packetBytes) ETV
attr interpolationmode none
attr source packetReceivedFromUpper
attr title "packet bytes from higher layer, vector(packetBytes)"
vector 241 KFatTreeNew.pod[2].aggregateSwitch[0].eth[0].mac.queue packetPushed:vector(packetBytes) ETV
attr interpolationmode none
attr title "packet pushed, vector(packetBytes)"
vector 242 KFatTreeNew.pod[2].aggregateSwitch[0].eth[0].mac.queue queueLength:vector ETV
attr interpolationmode sample-hold
attr source "count(packetPushed) - count(packetPopped) - count(packetRemoved) - count(packetDropped)"
attr title "queue length, vector"
vector 243 KFatTreeNew.pod[2].aggregateSwitch[0].eth[0].mac.queue packetPopped:vector(packetBytes) ETV
attr interpolationmode none
attr title "packet popped, vector(packetBytes)"
vector 244 KFatTreeNew.pod[2].aggregateSwitch[0].eth[0].mac.queue queueingTime:vector ETV
attr interpolationmode none
attr source queueingTime(packetPopped)
attr title "queueing times, vector"
attr unit s
vector 245 KFatTreeNew.pod[2].aggregateSwitch[0].eth[1].mac packetReceivedFromUpper:vector(packetBytes) ETV
attr interpolationmode none
attr source packetReceivedFromUpper
attr title "packet bytes from higher layer, vector(packetBytes)"
vector 246 KFatTreeNew.pod[2].aggregateSwitch[0].eth[1].mac.queue packetPushed:vector(packetBytes) ETV
attr interpolationmode none
attr title "packet pushed, vector(packetBytes)"
vector 247 KFatTreeNew.pod[2].aggregateSwitch[0].eth[1].mac.queue queueLength:vector ETV
attr interpolationmode sample-hold
attr source "count(packetPushed) - count(packetPopped) - count(packetRemoved) - count(packetDropped)"
attr title "queue length, vector"
vector 248 KFatTreeNew.pod[2].aggregateSwitch[0].eth[1].mac.queue packetPopped:vector(packetBytes) ETV
attr interpolationmode none
attr title "packet popped, vector(packetBytes)"
vector 249 KFatTreeNew.pod[2].aggregateSwitch[0].eth[1].mac.queue queueingTime:vector ETV
attr interpolationmode none
attr source queueingTime(packetPopped)
attr title "queueing times, vector"
attr unit s
vector 250 KFatTreeNew.pod[2].aggregateSwitch[0].eth[2].mac packetReceivedFromUpper:vector(packetBytes) ETV
attr interpolationmode none
attr source packetReceivedFromUpper
attr title "packet bytes from higher layer, vector(packetBytes)"
vector 251 KFatTreeNew.pod[2].aggregateSwitch[0].eth[2].mac.queue packetPushed:vector(packetBytes) ETV
attr interpolationmode none
attr title "packet pushed, vector(packetBytes)"
vector 252 KFatTreeNew.pod[2].aggregateSwitch[0].eth[2].mac.queue queueLength:vector ETV
attr interpolationmode sample-hold
attr source "count(packetPushed) - count(packetPopped) - count(packetRemoved) - count(packetDropped)"
attr title "queue length, vector"
vector 253 KFatTreeNew.pod[2].aggregateSwitch[0].eth[2].mac.queue packetPopped:vector(packetBytes) ETV
attr interpolationmode none
attr title "packet popped, vector(packetBytes)"
vector 254 KFatTreeNew.pod[2].aggregateSwitch[0].eth[2].mac.queue queueingTime:vector ETV
attr interpolationmode none
attr source queueingTime(packetPopped)
attr title "queueing times, vector"
attr unit s
vector 255 KFatTreeNew.pod[2].aggregateSwitch[0].eth[3].mac packetReceivedFromUpper:vector(packetBytes) ETV
attr interpolationmode none
attr source packetReceivedFromUpper
attr title "packet bytes from higher layer, vector(packetBytes)"
vector 256 KFatTreeNew.pod[2].aggregateSwitch[0].eth[3].mac.queue packetPushed:vector(packetBytes) ETV
attr interpolationmode none
attr title "packet pushed, vector(packetBytes)"
vector 257 KFatTreeNew.pod[2].aggregateSwitch[0].eth[3].mac.queue queueLength:vector ETV
attr interpolationmode sample-hold
attr source "count(packetPushed) - count(packetPopped) - count(packetRemoved) - count(packetDropped)"
attr title "queue length, vector"
vector 258 KFatTreeNew.pod[2].aggregateSwitch[0].eth[3].mac.queue packetPopped:vector(packetBytes) ETV
attr interpolationmode none
attr title "packet popped, vector(packetBytes)"
vector 259 KFatTreeNew.pod[2].aggregateSwitch[0].eth[3].mac.queue queueingTime:vector ETV
attr interpolationmode none
attr source queueingTime(packetPopped)
attr title "queueing times, vector"
attr unit s
vector 260 KFatTreeNew.pod[2].aggregateSwitch[1].eth[0].mac packetReceivedFromUpper:vector(packetBytes) ETV
attr interpolationmode none
attr source packetReceivedFromUpper
attr title "packet bytes from higher layer, vector(packetBytes)"
vector 261 KFatTreeNew.pod[2].aggregateSwitch[1].eth[0].mac.queue packetPushed:vector(packetBytes) ETV
attr interpolationmode none
attr title "packet pushed, vector(packetBytes)"
vector 262 KFatTreeNew.pod[2].aggregateSwitch[1].eth[0].mac.queue queueLength:vector ETV
attr interpolationmode sample-hold
attr source "count(packetPushed) - count(packetPopped) - count(packetRemoved) - count(packetDropped)"
attr title "queue length, vector"
vector 263 KFatTreeNew.pod[2].aggregateSwitch[1].eth[0].mac.queue packetPopped:vector(packetBytes) ETV
attr interpolationmode none
attr title "packet popped, vector(packetBytes)"
vector 264 KFatTreeNew.pod[2].aggregateSwitch[1].eth[0].mac.queue queueingTime:vector ETV
attr interpolationmode none
attr source queueingTime(packetPopped)
attr title "queueing times, vector"
attr unit s
vector 265 KFatTreeNew.pod[2].aggregateSwitch[1].eth[1].mac packetReceivedFromUpper:vector(packetBytes) ETV
attr interpolationmode none
attr source packetReceivedFromUpper
attr title "packet bytes from higher layer, vector(packetBytes)"
vector 266 KFatTreeNew.pod[2].aggregateSwitch[1].eth[1].mac.queue packetPushed:vector(packetBytes) ETV
attr interpolationmode none
attr title "packet pushed, vector(packetBytes)"
vector 267 KFatTreeNew.pod[2].aggregateSwitch[1].eth[1].mac.queue queueLength:vector ETV
attr interpolationmode sample-hold
attr source "count(packetPushed) - count(packetPopped) - count(packetRemoved) - count(packetDropped)"
attr title "queue length, vector"
vector 268 KFatTreeNew.pod[2].aggregateSwitch[1].eth[1].mac.queue packetPopped:vector(packetBytes) ETV
attr interpolationmode none
attr title "packet popped, vector(packetBytes)"
vector 269 KFatTreeNew.pod[2].aggregateSwitch[1].eth[1].mac.queue queueingTime:vector ETV
attr interpolationmode none
attr source queueingTime(packetPopped)
attr title "queueing times, vector"
attr unit s
vector 270 KFatTreeNew.pod[2].aggregateSwitch[1].eth[2].mac packetReceivedFromUpper:vector(packetBytes) ETV
attr interpolationmode none
attr source packetReceivedFromUpper
attr title "packet bytes from higher layer, vector(packetBytes)"
vector 271 KFatTreeNew.pod[2].aggregateSwitch[1].eth[2].mac.queue packetPushed:vector(packetBytes) ETV
attr interpolationmode none
attr title "packet pushed, vector(packetBytes)"
vector 272 KFatTreeNew.pod[2].aggregateSwitch[1].eth[2].mac.queue queueLength:vector ETV
attr interpolationmode sample-hold
attr source "count(packetPushed) - count(packetPopped) - count(packetRemoved) - count(packetDropped)"
attr title "queue length, vector"
vector 273 KFatTreeNew.pod[2].aggregateSwitch[1].eth[2].mac.queue packetPopped:vector(packetBytes) ETV
attr interpolationmode none
attr title "packet popped, vector(packetBytes)"
vector 274 KFatTreeNew.pod[2].aggregateSwitch[1].eth[2].mac.queue queueingTime:vector ETV
attr interpolationmode none
attr source queueingTime(packetPopped)
attr title "queueing times, vector"
attr unit s
vector 275 KFatTreeNew.pod[2].aggregateSwitch[1].eth[3].mac packetReceivedFromUpper:vector(packetBytes) ETV
attr interpolationmode none
attr source packetReceivedFromUpper
attr title "packet bytes from higher layer, vector(packetBytes)"
vector 276 KFatTreeNew.pod[2].aggregateSwitch[1].eth[3].mac.queue packetPushed:vector(packetBytes) ETV
attr interpolationmode none
attr title "packet pushed, vector(packetBytes)"
vector 277 KFatTreeNew.pod[2].aggregateSwitch[1].eth[3].mac.queue queueLength:vector ETV
attr interpolationmode sample-hold
attr source "count(packetPushed) - count(packetPopped) - count(packetRemoved) - count(packetDropped)"
attr title "queue length, vector"
vector 278 KFatTreeNew.pod[2].aggregateSwitch[1].eth[3].mac.queue packetPopped:vector(packetBytes) ETV
attr interpolationmode none
attr title "packet popped, vector(packetBytes)"
vector 279 KFatTreeNew.pod[2].aggregateSwitch[1].eth[3].mac.queue queueingTime:vector ETV
attr interpolationmode none
attr source queueingTime(packetPopped)
attr title "queueing times, vector"
attr unit s
vector 280 KFatTreeNew.pod[2].edgeSwitch[0].eth[0].mac packetReceivedFromUpper:vector(packetBytes) ETV
attr interpolationmode none
attr source packetReceivedFromUpper
attr title "packet bytes from higher layer, vector(packetBytes)"
vector 281 KFatTreeNew.pod[2].edgeSwitch[0].eth[0].mac.queue packetPushed:vector(packetBytes) ETV
attr interpolationmode none
attr title "packet pushed, vector(packetBytes)"
vector 282 KFatTreeNew.pod[2].edgeSwitch[0].eth[0].mac.queue queueLength:vector ETV
attr interpolationmode sample-hold
attr source "count(packetPushed) - count(packetPopped) - count(packetRemoved) - count(packetDropped)"
attr title "queue length, vector"
vector 283 KFatTreeNew.pod[2].edgeSwitch[0].eth[0].mac.queue packetPopped:vector(packetBytes) ETV
attr interpolationmode none
attr title "packet popped, vector(packetBytes)"
vector 284 KFatTreeNew.pod[2].edgeSwitch[0].eth[0].mac.queue queueingTime:vector ETV
attr interpolationmode none
attr source queueingTime(packetPopped)
attr title "queueing times, vector"
attr unit s
vector 285 KFatTreeNew.pod[2].edgeSwitch[0].eth[1].mac packetReceivedFromUpper:vector(packetBytes) ETV
attr interpolationmode none
attr source packetReceivedFromUpper
attr title "packet bytes from higher layer, vector(packetBytes)"
vector 286 KFatTreeNew.pod[2].edgeSwitch[0].eth[1].mac.queue packetPushed:vector(packetBytes) ETV
attr interpolationmode none
attr title "packet pushed, vector(packetBytes)"
vector 287 KFatTreeNew.pod[2].edgeSwitch[0].eth[1].mac.queue queueLength:vector ETV
attr interpolationmode sample-hold
attr source "count(packetPushed) - count(packetPopped) - count(packetRemoved) - count(packetDropped)"
attr title "queue length, vector"
vector 288 KFatTreeNew.pod[2].edgeSwitch[0].eth[1].mac.queue packetPopped:vector(packetBytes) ETV
attr interpolationmode none
attr title "packet popped, vector(packetBytes)"
vector 289 KFatTreeNew.pod[2].edgeSwitch[0].eth[1].mac.queue queueingTime:vector ETV
attr interpolationmode none
attr source queueingTime(packetPopped)
attr title "queueing times, vector"
attr unit s
vector 290 KFatTreeNew.pod[2].edgeSwitch[0].eth[2].mac packetReceivedFromUpper:vector(packetBytes) ETV
attr interpolationmode none
attr source packetReceivedFromUpper
attr title "packet bytes from higher layer, vector(packetBytes)"
vector 291 KFatTreeNew.pod[2].edgeSwitch[0].eth[2].mac.queue packetPushed:vector(packetBytes) ETV
attr interpolationmode none
attr title "packet pushed, vector(packetBytes)"
vector 292 KFatTreeNew.pod[2].edgeSwitch[0].eth[2].mac.queue queueLength:vector ETV
attr interpolationmode sample-hold
attr source "count(packetPushed) - count(packetPopped) - count(packetRemoved) - count(packetDropped)"
attr title "queue length, vector"
vector 293 KFatTreeNew.pod[2].edgeSwitch[0].eth[2].mac.queue packetPopped:vector(packetBytes) ETV
attr interpolationmode none
attr title "packet popped, vector(packetBytes)"
vector 294 KFatTreeNew.pod[2].edgeSwitch[0].eth[2].mac.queue queueingTime:vector ETV
attr interpolationmode none
attr source queueingTime(packetPopped)
attr title "queueing times, vector"
attr unit s
vector 295 KFatTreeNew.pod[2].edgeSwitch[0].eth[3].mac packetReceivedFromUpper:vector(packetBytes) ETV
attr interpolationmode none
attr source packetReceivedFromUpper
attr title "packet bytes from higher layer, vector(packetBytes)"
vector 296 KFatTreeNew.pod[2].edgeSwitch[0].eth[3].mac.queue packetPushed:vector(packetBytes) ETV
attr interpolationmode none
attr title "packet pushed, vector(packetBytes)"
vector 297 KFatTreeNew.pod[2].edgeSwitch[0].eth[3].mac.queue queueLength:vector ETV
attr interpolationmode sample-hold
attr source "count(packetPushed) - count(packetPopped) - count(packetRemoved) - count(packetDropped)"
attr title "queue length, vector"
vector 298 KFatTreeNew.pod[2].edgeSwitch[0].eth[3].mac.queue packetPopped:vector(packetBytes) ETV
attr interpolationmode none
attr title "packet popped, vector(packetBytes)"
vector 299 KFatTreeNew.pod[2].edgeSwitch[0].eth[3].mac.queue queueingTime:vector ETV
attr interpolationmode none
attr source queueingTime(packetPopped)
attr title "queueing times, vector"
attr unit s
vector 300 KFatTreeNew.pod[2].edgeSwitch[1].eth[0].mac packetReceivedFromUpper:vector(packetBytes) ETV
attr interpolationmode none
attr source packetReceivedFromUpper
attr title "packet bytes from higher layer, vector(packetBytes)"
vector 301 KFatTreeNew.pod[2].edgeSwitch[1].eth[0].mac.queue packetPushed:vector(packetBytes) ETV
attr interpolationmode none
attr title "packet pushed, vector(packetBytes)"
vector 302 KFatTreeNew.pod[2].edgeSwitch[1].eth[0].mac.queue queueLength:vector ETV
attr interpolationmode sample-hold
attr source "count(packetPushed) - count(packetPopped) - count(packetRemoved) - count(packetDropped)"
attr title "queue length, vector"
vector 303 KFatTreeNew.pod[2].edgeSwitch[1].eth[0].mac.queue packetPopped:vector(packetBytes) ETV
attr interpolationmode none
attr title "packet popped, vector(packetBytes)"
vector 304 KFatTreeNew.pod[2].edgeSwitch[1].eth[0].mac.queue queueingTime:vector ETV
attr interpolationmode none
attr source queueingTime(packetPopped)
attr title "queueing times, vector"
attr unit s
vector 305 KFatTreeNew.pod[2].edgeSwitch[1].eth[1].mac packetReceivedFromUpper:vector(packetBytes) ETV
attr interpolationmode none
attr source packetReceivedFromUpper
attr title "packet bytes from higher layer, vector(packetBytes)"
vector 306 KFatTreeNew.pod[2].edgeSwitch[1].eth[1].mac.queue packetPushed:vector(packetBytes) ETV
attr interpolationmode none
attr title "packet pushed, vector(packetBytes)"
vector 307 KFatTreeNew.pod[2].edgeSwitch[1].eth[1].mac.queue queueLength:vector ETV
attr interpolationmode sample-hold
attr source "count(packetPushed) - count(packetPopped) - count(packetRemoved) - count(packetDropped)"
attr title "queue length, vector"
vector 308 KFatTreeNew.pod[2].edgeSwitch[1].eth[1].mac.queue packetPopped:vector(packetBytes) ETV
attr interpolationmode none
attr title "packet popped, vector(packetBytes)"
vector 309 KFatTreeNew.pod[2].edgeSwitch[1].eth[1].mac.queue queueingTime:vector ETV
attr interpolationmode none
attr source queueingTime(packetPopped)
attr title "queueing times, vector"
attr unit s
vector 310 KFatTreeNew.pod[2].edgeSwitch[1].eth[2].mac packetReceivedFromUpper:vector(packetBytes) ETV
attr interpolationmode none
attr source packetReceivedFromUpper
attr title "packet bytes from higher layer, vector(packetBytes)"
vector 311 KFatTreeNew.pod[2].edgeSwitch[1].eth[2].mac.queue packetPushed:vector(packetBytes) ETV
attr interpolationmode none
attr title "packet pushed, vector(packetBytes)"
vector 312 KFatTreeNew.pod[2].edgeSwitch[1].eth[2].mac.queue queueLength:vector ETV
attr interpolationmode sample-hold
attr source "count(packetPushed) - count(packetPopped) - count(packetRemoved) - count(packetDropped)"
attr title "queue length, vector"
vector 313 KFatTreeNew.pod[2].edgeSwitch[1].eth[2].mac.queue packetPopped:vector(packetBytes) ETV
attr interpolationmode none
attr title "packet popped, vector(packetBytes)"
vector 314 KFatTreeNew.pod[2].edgeSwitch[1].eth[2].mac.queue queueingTime:vector ETV
attr interpolationmode none
attr source queueingTime(packetPopped)
attr title "queueing times, vector"
attr unit s
vector 315 KFatTreeNew.pod[2].edgeSwitch[1].eth[3].mac packetReceivedFromUpper:vector(packetBytes) ETV
attr interpolationmode none
attr source packetReceivedFromUpper
attr title "packet bytes from higher layer, vector(packetBytes)"
vector 316 KFatTreeNew.pod[2].edgeSwitch[1].eth[3].mac.queue packetPushed:vector(packetBytes) ETV
attr interpolationmode none
attr title "packet pushed, vector(packetBytes)"
vector 317 KFatTreeNew.pod[2].edgeSwitch[1].eth[3].mac.queue queueLength:vector ETV
attr interpolationmode sample-hold
attr source "count(packetPushed) - count(packetPopped) - count(packetRemoved) - count(packetDropped)"
attr title "queue length, vector"
vector 318 KFatTreeNew.pod[2].edgeSwitch[1].eth[3].mac.queue packetPopped:vector(packetBytes) ETV
attr interpolationmode none
attr title "packet popped, vector(packetBytes)"
vector 319 KFatTreeNew.pod[2].edgeSwitch[1].eth[3].mac.queue queueingTime:vector ETV
attr interpolationmode none
attr source queueingTime(packetPopped)
attr title "queueing times, vector"
attr unit s
vector 320 KFatTreeNew.pod[3].aggregateSwitch[0].eth[0].mac packetReceivedFromUpper:vector(packetBytes) ETV
attr interpolationmode none
attr source packetReceivedFromUpper
attr title "packet bytes from higher layer, vector(packetBytes)"
vector 321 KFatTreeNew.pod[3].aggregateSwitch[0].eth[0].mac.queue packetPushed:vector(packetBytes) ETV
attr interpolationmode none
attr title "packet pushed, vector(packetBytes)"
vector 322 KFatTreeNew.pod[3].aggregateSwitch[0].eth[0].mac.queue queueLength:vector ETV
attr interpolationmode sample-hold
attr source "count(packetPushed) - count(packetPopped) - count(packetRemoved) - count(packetDropped)"
attr title "queue length, vector"
vector 323 KFatTreeNew.pod[3].aggregateSwitch[0].eth[0].mac.queue packetPopped:vector(packetBytes) ETV
attr interpolationmode none
attr title "packet popped, vector(packetBytes)"
vector 324 KFatTreeNew.pod[3].aggregateSwitch[0].eth[0].mac.queue queueingTime:vector ETV
attr interpolationmode none
attr source queueingTime(packetPopped)
attr title "queueing times, vector"
attr unit s
vector 325 KFatTreeNew.pod[3].aggregateSwitch[0].eth[1].mac packetReceivedFromUpper:vector(packetBytes) ETV
attr interpolationmode none
attr source packetReceivedFromUpper
attr title "packet bytes from higher layer, vector(packetBytes)"
vector 326 KFatTreeNew.pod[3].aggregateSwitch[0].eth[1].mac.queue packetPushed:vector(packetBytes) ETV
attr interpolationmode none
attr title "packet pushed, vector(packetBytes)"
vector 327 KFatTreeNew.pod[3].aggregateSwitch[0].eth[1].mac.queue queueLength:vector ETV
attr interpolationmode sample-hold
attr source "count(packetPushed) - count(packetPopped) - count(packetRemoved) - count(packetDropped)"
attr title "queue length, vector"
vector 328 KFatTreeNew.pod[3].aggregateSwitch[0].eth[1].mac.queue packetPopped:vector(packetBytes) ETV
attr interpolationmode none
attr title "packet popped, vector(packetBytes)"
vector 329 KFatTreeNew.pod[3].aggregateSwitch[0].eth[1].mac.queue queueingTime:vector ETV
attr interpolationmode none
attr source queueingTime(packetPopped)
attr title "queueing times, vector"
attr unit s
vector 330 KFatTreeNew.pod[3].aggregateSwitch[0].eth[2].mac packetReceivedFromUpper:vector(packetBytes) ETV
attr interpolationmode none
attr source packetReceivedFromUpper
attr title "packet bytes from higher layer, vector(packetBytes)"
vector 331 KFatTreeNew.pod[3].aggregateSwitch[0].eth[2].mac.queue packetPushed:vector(packetBytes) ETV
attr interpolationmode none
attr title "packet pushed, vector(packetBytes)"
vector 332 KFatTreeNew.pod[3].aggregateSwitch[0].eth[2].mac.queue queueLength:vector ETV
attr interpolationmode sample-hold
attr source "count(packetPushed) - count(packetPopped) - count(packetRemoved) - count(packetDropped)"
attr title "queue length, vector"
vector 333 KFatTreeNew.pod[3].aggregateSwitch[0].eth[2].mac.queue packetPopped:vector(packetBytes) ETV
attr interpolationmode none
attr title "packet popped, vector(packetBytes)"
vector 334 KFatTreeNew.pod[3].aggregateSwitch[0].eth[2].mac.queue queueingTime:vector ETV
attr interpolationmode none
attr source queueingTime(packetPopped)
attr title "queueing times, vector"
attr unit s
vector 335 KFatTreeNew.pod[3].aggregateSwitch[0].eth[3].mac packetReceivedFromUpper:vector(packetBytes) ETV
attr interpolationmode none
attr source packetReceivedFromUpper
attr title "packet bytes from higher layer, vector(packetBytes)"
vector 336 KFatTreeNew.pod[3].aggregateSwitch[0].eth[3].mac.queue packetPushed:vector(packetBytes) ETV
attr interpolationmode none
attr title "packet pushed, vector(packetBytes)"
vector 337 KFatTreeNew.pod[3].aggregateSwitch[0].eth[3].mac.queue queueLength:vector ETV
attr interpolationmode sample-hold
attr source "count(packetPushed) - count(packetPopped) - count(packetRemoved) - count(packetDropped)"
attr title "queue length, vector"
vector 338 KFatTreeNew.pod[3].aggregateSwitch[0].eth[3].mac.queue packetPopped:vector(packetBytes) ETV
attr interpolationmode none
attr title "packet popped, vector(packetBytes)"
vector 339 KFatTreeNew.pod[3].aggregateSwitch[0].eth[3].mac.queue queueingTime:vector ETV
attr interpolationmode none
attr source queueingTime(packetPopped)
attr title "queueing times, vector"
attr unit s
vector 340 KFatTreeNew.pod[3].aggregateSwitch[1].eth[0].mac packetReceivedFromUpper:vector(packetBytes) ETV
attr interpolationmode none
attr source packetReceivedFromUpper
attr title "packet bytes from higher layer, vector(packetBytes)"
vector 341 KFatTreeNew.pod[3].aggregateSwitch[1].eth[0].mac.queue packetPushed:vector(packetBytes) ETV
attr interpolationmode none
attr title "packet pushed, vector(packetBytes)"
vector 342 KFatTreeNew.pod[3].aggregateSwitch[1].eth[0].mac.queue queueLength:vector ETV
attr interpolationmode sample-hold
attr source "count(packetPushed) - count(packetPopped) - count(packetRemoved) - count(packetDropped)"
attr title "queue length, vector"
vector 343 KFatTreeNew.pod[3].aggregateSwitch[1].eth[0].mac.queue packetPopped:vector(packetBytes) ETV
attr interpolationmode none
attr title "packet popped, vector(packetBytes)"
vector 344 KFatTreeNew.pod[3].aggregateSwitch[1].eth[0].mac.queue queueingTime:vector ETV
attr interpolationmode none
attr source queueingTime(packetPopped)
attr title "queueing times, vector"
attr unit s
vector 345 KFatTreeNew.pod[3].aggregateSwitch[1].eth[1].mac packetReceivedFromUpper:vector(packetBytes) ETV
attr interpolationmode none
attr source packetReceivedFromUpper
attr title "packet bytes from higher layer, vector(packetBytes)"
vector 346 KFatTreeNew.pod[3].aggregateSwitch[1].eth[1].mac.queue packetPushed:vector(packetBytes) ETV
attr interpolationmode none
attr title "packet pushed, vector(packetBytes)"
vector 347 KFatTreeNew.pod[3].aggregateSwitch[1].eth[1].mac.queue queueLength:vector ETV
attr interpolationmode sample-hold
attr source "count(packetPushed) - count(packetPopped) - count(packetRemoved) - count(packetDropped)"
attr title "queue length, vector"
vector 348 KFatTreeNew.pod[3].aggregateSwitch[1].eth[1].mac.queue packetPopped:vector(packetBytes) ETV
attr interpolationmode none
attr title "packet popped, vector(packetBytes)"
vector 349 KFatTreeNew.pod[3].aggregateSwitch[1].eth[1].mac.queue queueingTime:vector ETV
attr interpolationmode none
attr source queueingTime(packetPopped)
attr title "queueing times, vector"
attr unit s
vector 350 KFatTreeNew.pod[3].aggregateSwitch[1].eth[2].mac packetReceivedFromUpper:vector(packetBytes) ETV
attr interpolationmode none
attr source packetReceivedFromUpper
attr title "packet bytes from higher layer, vector(packetBytes)"
vector 351 KFatTreeNew.pod[3].aggregateSwitch[1].eth[2].mac.queue packetPushed:vector(packetBytes) ETV
attr interpolationmode none
attr title "packet pushed, vector(packetBytes)"
vector 352 KFatTreeNew.pod[3].aggregateSwitch[1].eth[2].mac.queue queueLength:vector ETV
attr interpolationmode sample-hold
attr source "count(packetPushed) - count(packetPopped) - count(packetRemoved) - count(packetDropped)"
attr title "queue length, vector"
vector 353 KFatTreeNew.pod[3].aggregateSwitch[1].eth[2].mac.queue packetPopped:vector(packetBytes) ETV
attr interpolationmode none
attr title "packet popped, vector(packetBytes)"
vector 354 KFatTreeNew.pod[3].aggregateSwitch[1].eth[2].mac.queue queueingTime:vector ETV
attr interpolationmode none
attr source queueingTime(packetPopped)
attr title "queueing times, vector"
attr unit s
vector 355 KFatTreeNew.pod[3].aggregateSwitch[1].eth[3].mac packetReceivedFromUpper:vector(packetBytes) ETV
attr interpolationmode none
attr source packetReceivedFromUpper
attr title "packet bytes from higher layer, vector(packetBytes)"
vector 356 KFatTreeNew.pod[3].aggregateSwitch[1].eth[3].mac.queue packetPushed:vector(packetBytes) ETV
attr interpolationmode none
attr title "packet pushed, vector(packetBytes)"
vector 357 KFatTreeNew.pod[3].aggregateSwitch[1].eth[3].mac.queue queueLength:vector ETV
attr interpolationmode sample-hold
attr source "count(packetPushed) - count(packetPopped) - count(packetRemoved) - count(packetDropped)"
attr title "queue length, vector"
vector 358 KFatTreeNew.pod[3].aggregateSwitch[1].eth[3].mac.queue packetPopped:vector(packetBytes) ETV
attr interpolationmode none
attr title "packet popped, vector(packetBytes)"
vector 359 KFatTreeNew.pod[3].aggregateSwitch[1].eth[3].mac.queue queueingTime:vector ETV
attr interpolationmode none
attr source queueingTime(packetPopped)
attr title "queueing times, vector"
attr unit s
vector 360 KFatTreeNew.pod[3].edgeSwitch[0].eth[0].mac packetReceivedFromUpper:vector(packetBytes) ETV
attr interpolationmode none
attr source packetReceivedFromUpper
attr title "packet bytes from higher layer, vector(packetBytes)"
vector 361 KFatTreeNew.pod[3].edgeSwitch[0].eth[0].mac.queue packetPushed:vector(packetBytes) ETV
attr interpolationmode none
attr title "packet pushed, vector(packetBytes)"
vector 362 KFatTreeNew.pod[3].edgeSwitch[0].eth[0].mac.queue queueLength:vector ETV
attr interpolationmode sample-hold
attr source "count(packetPushed) - count(packetPopped) - count(packetRemoved) - count(packetDropped)"
attr title "queue length, vector"
vector 363 KFatTreeNew.pod[3].edgeSwitch[0].eth[0].mac.queue packetPopped:vector(packetBytes) ETV
attr interpolationmode none
attr title "packet popped, vector(packetBytes)"
vector 364 KFatTreeNew.pod[3].edgeSwitch[0].eth[0].mac.queue queueingTime:vector ETV
attr interpolationmode none
attr source queueingTime(packetPopped)
attr title "queueing times, vector"
attr unit s
vector 365 KFatTreeNew.pod[3].edgeSwitch[0].eth[1].mac packetReceivedFromUpper:vector(packetBytes) ETV
attr interpolationmode none
attr source packetReceivedFromUpper
attr title "packet bytes from higher layer, vector(packetBytes)"
vector 366 KFatTreeNew.pod[3].edgeSwitch[0].eth[1].mac.queue packetPushed:vector(packetBytes) ETV
attr interpolationmode none
attr title "packet pushed, vector(packetBytes)"
vector 367 KFatTreeNew.pod[3].edgeSwitch[0].eth[1].mac.queue queueLength:vector ETV
attr interpolationmode sample-hold
attr source "count(packetPushed) - count(packetPopped) - count(packetRemoved) - count(packetDropped)"
attr title "queue length, vector"
vector 368 KFatTreeNew.pod[3].edgeSwitch[0].eth[1].mac.queue packetPopped:vector(packetBytes) ETV
attr interpolationmode none
attr title "packet popped, vector(packetBytes)"
vector 369 KFatTreeNew.pod[3].edgeSwitch[0].eth[1].mac.queue queueingTime:vector ETV
attr interpolationmode none
attr source queueingTime(packetPopped)
attr title "queueing times, vector"
attr unit s
vector 370 KFatTreeNew.pod[3].edgeSwitch[0].eth[2].mac packetReceivedFromUpper:vector(packetBytes) ETV
attr interpolationmode none
attr source packetReceivedFromUpper
attr title "packet bytes from higher layer, vector(packetBytes)"
vector 371 KFatTreeNew.pod[3].edgeSwitch[0].eth[2].mac.queue packetPushed:vector(packetBytes) ETV
attr interpolationmode none
attr title "packet pushed, vector(packetBytes)"
vector 372 KFatTreeNew.pod[3].edgeSwitch[0].eth[2].mac.queue queueLength:vector ETV
attr interpolationmode sample-hold
attr source "count(packetPushed) - count(packetPopped) - count(packetRemoved) - count(packetDropped)"
attr title "queue length, vector"
vector 373 KFatTreeNew.pod[3].edgeSwitch[0].eth[2].mac.queue packetPopped:vector(packetBytes) ETV
attr interpolationmode none
attr title "packet popped, vector(packetBytes)"
vector 374 KFatTreeNew.pod[3].edgeSwitch[0].eth[2].mac.queue queueingTime:vector ETV
attr interpolationmode none
attr source queueingTime(packetPopped)
attr title "queueing times, vector"
attr unit s
vector 375 KFatTreeNew.pod[3].edgeSwitch[0].eth[3].mac packetReceivedFromUpper:vector(packetBytes) ETV
attr interpolationmode none
attr source packetReceivedFromUpper
attr title "packet bytes from higher layer, vector(packetBytes)"
vector 376 KFatTreeNew.pod[3].edgeSwitch[0].eth[3].mac.queue packetPushed:vector(packetBytes) ETV
attr interpolationmode none
attr title "packet pushed, vector(packetBytes)"
vector 377 KFatTreeNew.pod[3].edgeSwitch[0].eth[3].mac.queue queueLength:vector ETV
attr interpolationmode sample-hold
attr source "count(packetPushed) - count(packetPopped) - count(packetRemoved) - count(packetDropped)"
attr title "queue length, vector"
vector 378 KFatTreeNew.pod[3].edgeSwitch[0].eth[3].mac.queue packetPopped:vector(packetBytes) ETV
attr interpolationmode none
attr title "packet popped, vector(packetBytes)"
vector 379 KFatTreeNew.pod[3].edgeSwitch[0].eth[3].mac.queue queueingTime:vector ETV
[...]
507	181343 52 259 1059 0.00000000576 31.25000000576 2 64 64 128 8192
508	181395 52 259 1059 0.00000000576 31.25000000576 2 64 64 128 8192
509	181447 52 260 1060 0.00000000576 31.25000000576 2 64 64 128 8192
510	181499 52 261 1061 0.00000000576 31.25000000576 2 64 64 128 8192
511	181551 52 261 1061 0.00000000576 31.25000000576 2 64 64 128 8192
512	181603 52 262 1062 0.00000000576 31.25000000576 2 64 64 128 8192
513	181655 52 263 1063 0.00000000576 31.25000000576 2 64 64 128 8192
514	181707 52 263 1063 0.00000000576 31.25000000576 2 64 64 128 8192
515	181759 52 264 1064 0.00000000576 31.25000000576 2 64 64 128 8192
516	181811 52 265 1065 0.00000000576 31.25000000576 2 64 64 128 8192
517	181863 52 265 1065 0.00000000576 31.25000000576 2 64 64 128 8192
518	181915 52 266 1066 0.00000000576 31.25000000576 2 64 64 128 8192
519	181967 52 267 1067 0.00000000576 31.25000000576 2 64 64 128 8192
520	182019 52 267 1067 0.00000000576 31.25000000576 2 64 64 128 8192
521	182071 52 268 1068 0.00000000576 31.25000000576 2 64 64 128 8192
522	182123 52 269 1069 0.00000000576 31.25000000576 2 64 64 128 8192
523	182175 52 269 1069 0.00000000576 31.25000000576 2 64 64 128 8192
524	182227 52 270 1070 0.00000000576 31.25000000576 2 64 64 128 8192
525	182279 52 271 1071 0.00000000576 31.25000000576 2 64 64 128 8192
526	182331 52 271 1071 0.00000000576 31.25000000576 2 64 64 128 8192
527	182383 52 272 1072 0.00000000576 31.25000000576 2 64 64 128 8192
528	182435 52 273 1073 0.00000000576 31.25000000576 2 64 64 128 8192
529	182487 52 273 1073 0.00000000576 31.25000000576 2 64 64 128 8192
530	182539 52 274 1074 0.00000000576 31.25000000576 2 64 64 128 8192
531	182591 52 275 1075 0.00000000576 31.25000000576 2 64 64 128 8192
532	182643 52 275 1075 0.00000000576 31.25000000576 2 64 64 128 8192
533	182695 52 276 1076 0.00000000576 31.25000000576 2 64 64 128 8192
534	182747 52 277 1077 0.00000000576 31.25000000576 2 64 64 128 8192
535	182799 52 277 1077 0.00000000576 31.25000000576 2 64 64 128 8192
536	182851 52 278 1078 0.00000000576 31.25000000576 2 64 64 128 8192
537	182903 52 279 1079 0.00000000576 31.25000000576 2 64 64 128 8192
538	182955 52 279 1079 0.00000000576 31.25000000576 2 64 64 128 8192
539	183007 52 280 1080 0.00000000576 31.25000000576 2 64 64 128 8192
540	183059 52 281 1081 0.00000000576 31.25000000576 2 64 64 128 8192
541	183111 52 281 1081 0.00000000576 31.25000000576 2 64 64 128 8192
542	183163 52 282 1082 0.00000000576 31.25000000576 2 64 64 128 8192
543	183215 52 283 1083 0.00000000576 31.25000000576 2 64 64 128 8192
544	183267 52 283 1083 0.00000000576 31.25000000576 2 64 64 128 8192
545	183319 52 284 1084 0.00000000576 31.25000000576 2 64 64 128 8192
546	183371 52 285 1085 0.00000000576 31.25000000576 2 64 64 128 8192
547	183423 52 285 1085 0.00000000576 31.25000000576 2 64 64 128 8192
548	183475 52 286 1086 0.00000000576 31.25000000576 2 64 64 128 8192
549	183527 52 287 1087 0.00000000576 31.25000000576 2 64 64 128 8192
550	183579 52 287 1087 0.00000000576 31.25000000576 2 64 64 128 8192
551	183631 52 288 1088 0.00000000576 31.25000000576 2 64 64 128 8192
552	183683 52 289 1089 0.00000000576 31.25000000576 2 64 64 128 8192
553	183735 52 289 1089 0.00000000576 31.25000000576 2 64 64 128 8192
554	183787 52 290 1090 0.00000000576 31.25000000576 2 64 64 128 8192
555	183839 52 291 1091 0.00000000576 31.25000000576 2 64 64 128 8192
556	183891 52 291 1091 0.00000000576 31.25000000576 2 64 64 128 8192
557	183943 52 292 1092 0.00000000576 31.25000000576 2 64 64 128 8192
558	183995 52 293 1093 0.00000000576 31.25000000576 2 64 64 128 8192
559	184047 52 293 1093 0.00000000576 31.25000000576 2 64 64 128 8192
560	184099 52 294 1094 0.00000000576 31.25000000576 2 64 64 128 8192
561	184151 52 295 1095 0.00000000576 31.25000000576 2 64 64 128 8192
562	184203 52 295 1095 0.00000000576 31.25000000576 2 64 64 128 8192
563	184255 52 296 1096 0.00000000576 31.25000000576 2 64 64 128 8192
564	184307 52 297 1097 0.00000000576 31.25000000576 2 64 64 128 8192
565	184359 52 297 1097 0.00000000576 31.25000000576 2 64 64 128 8192
566	184411 52 298 1098 0.00000000576 31.25000000576 2 64 64 128 8192
567	184463 52 299 1099 0.00000000576 31.25000000576 2 64 64 128 8192
568	184515 52 299 1099 0.00000000576 31.25000000576 2 64 64 128 8192
569	184567 52 300 1100 0.00000000576 31.25000000576 2 64 64 128 8192
570	184619 52 301 1101 0.00000000576 31.25000000576 2 64 64 128 8192
571	184671 52 301 1101 0.00000000576 31.25000000576 2 64 64 128 8192
572	184723 52 302 1102 0.00000000576 31.25000000576 2 64 64 128 8192
573	184775 52 303 1103 0.00000000576 31.25000000576 2 64 64 128 8192
574	184827 52 303 1103 0.00000000576 31.25000000576 2 64 64 128 8192
575	184879 52 304 1104 0.00000000576 31.25000000576 2 64 64 128 8192
576	184931 52 305 1105 0.00000000576 31.25000000576 2 64 64 128 8192
577	184983 52 305 1105 0.00000000576 31.25000000576 2 64 64 128 8192
578	185035 52 306 1106 0.00000000576 31.25000000576 2 64 64 128 8192
579	185087 52 307 1107 0.00000000576 31.25000000576 2 64 64 128 8192
580	185139 52 307 1107 0.00000000576 31.25000000576 2 64 64 128 8192
581	185191 52 308 1108 0.00000000576 31.25000000576 2 64 64 128 8192
582	185243 52 309 1109 0.00000000576 31.25000000576 2 64 64 128 8192
583	185295 52 309 1109 0.00000000576 31.25000000576 2 64 64 128 8192
584	185347 52 310 1110 0.00000000576 31.25000000576 2 64 64 128 8192
585	185399 52 311 1111 0.00000000576 31.25000000576 2 64 64 128 8192
586	185451 52 311 1111 0.00000000576 31.25000000576 2 64 64 128 8192
587	185503 52 312 1112 0.00000000576 31.25000000576 2 64 64 128 8192
588	185555 52 313 1113 0.00000000576 31.25000000576 2 64 64 128 8192
589	185607 52 313 1113 0.00000000576 31.25000000576 2 64 64 128 8192
590	185659 52 314 1114 0.00000000576 31.25000000576 2 64 64 128 8192
591	185711 52 315 1115 0.00000000576 31.25000000576 2 64 64 128 8192
592	185763 52 315 1115 0.00000000576 31.25000000576 2 64 64 128 8192
593	185815 52 316 1116 0.00000000576 31.25000000576 2 64 64 128 8192
594	185867 52 317 1117 0.00000000576 31.25000000576 2 64 64 128 8192
595	185919 52 317 1117 0.00000000576 31.25000000576 2 64 64 128 8192
596	185971 52 318 1118 0.00000000576 31.25000000576 2 64 64 128 8192
597	186023 52 319 1119 0.00000000576 31.25000000576 2 64 64 128 8192
598	186075 52 319 1119 0.00000000576 31.25000000576 2 64 64 128 8192
599	186127 52 320 1120 0.00000000576 31.25000000576 2 64 64 128 8192
600	186179 52 321 1121 0.00000000576 31.25000000576 2 64 64 128 8192
601	186231 52 321 1121 0.00000000576 31.25000000576 2 64 64 128 8192
602	186283 52 322 1122 0.00000000576 31.25000000576 2 64 64 128 8192
603	186335 52 323 1123 0.00000000576 31.25000000576 2 64 64 128 8192
604	186387 52 323 1123 0.00000000576 31.25000000576 2 64 64 128 8192
605	186439 52 324 1124 0.00000000576 31.25000000576 2 64 64 128 8192
606	186491 52 325 1125 0.00000000576 31.25000000576 2 64 64 128 8192
607	186543 52 325 1125 0.00000000576 31.25000000576 2 64 64 128 8192
608	186595 52 326 1126 0.00000000576 31.25000000576 2 64 64 128 8192
609	186647 52 327 1127 0.00000000576 31.25000000576 2 64 64 128 8192
610	186699 52 327 1127 0.00000000576 31.25000000576 2 64 64 128 8192
611	186751 52 328 1128 0.00000000576 31.25000000576 2 64 64 128 8192
612	186803 52 329 1129 0.00000000576 31.25000000576 2 64 64 128 8192
613	186855 52 329 1129 0.00000000576 31.25000000576 2 64 64 128 8192
614	186907 52 330 1130 0.00000000576 31.25000000576 2 64 64 128 8192
615	186959 52 331 1131 0.00000000576 31.25000000576 2 64 64 128 8192
616	187011 52 331 1131 0.00000000576 31.25000000576 2 64 64 128 8192
617	187063 52 332 1132 0.00000000576 31.25000000576 2 64 64 128 8192
618	187115 52 333 1133 0.00000000576 31.25000000576 2 64 64 128 8192
619	187167 52 333 1133 0.00000000576 31.25000000576 2 64 64 128 8192
620	187219 52 334 1134 0.00000000576 31.25000000576 2 64 64 128 8192
621	187271 52 335 1135 0.00000000576 31.25000000576 2 64 64 128 8192
622	187323 52 335 1135 0.00000000576 31.25000000576 2 64 64 128 8192
623	187375 52 336 1136 0.00000000576 31.25000000576 2 64 64 128 8192
624	187427 52 337 1137 0.00000000576 31.25000000576 2 46 46 92 4232
625	187479 52 338 1138 0.00000000576 31.25000000576 2 46 46 92 4232
626	187531 52 339 1139 0.00000000576 31.25000000576 2 46 46 92 4232
627	187583 52 340 1140 0.00000000576 31.25000000576 2 46 46 92 4232
628	187635 52 341 1141 0.00000000576 31.25000000576 2 46 46 92 4232
629	187687 52 342 1142 0.00000000576 31.25000000576 2 46 46 92 4232
630	187739 52 343 1143 0.00000000576 31.25000000576 2 46 46 92 4232
631	187791 52 344 1144 0.00000000576 31.25000000576 2 46 46 92 4232
632	187843 52 345 1145 0.00000000576 31.25000000576 2 46 46 92 4232
633	187895 52 346 1146 0.00000000576 31.25000000576 2 46 46 92 4232
634	187947 52 347 1147 0.00000000576 31.25000000576 2 46 46 92 4232
635	187999 52 348 1148 0.00000000576 31.25000000576 2 46 46 92 4232
636	188051 52 349 1149 0.00000000576 31.25000000576 2 46 46 92 4232
637	188103 52 350 1150 0.00000000576 31.25000000576 2 46 46 92 4232
638	188155 52 351 1151 0.00000000576 31.25000000576 2 46 46 92 4232
639	188207 52 352 1152 0.00000000576 31.25000000576 2 46 46 92 4232
640	188259 52 353 1153 0.00000000576 31.25000000576 2 46 46 92 4232
641	188311 52 354 1154 0.00000000576 31.25000000576 2 46 46 92 4232
642	188363 52 355 1155 0.00000000576 31.25000000576 2 46 46 92 4232
643	188415 52 356 1156 0.00000000576 31.25000000576 2 46 46 92 4232
644	188467 52 357 1157 0.00000000576 31.25000000576 2 46 46 92 4232
645	188519 52 358 1158 0.00000000576 31.25000000576 2 46 46 92 4232
646	188571 52 359 1159 0.00000000576 31.25000000576 2 46 46 92 4232
647	188623 52 360 1160 0.00000000576 31.25000000576 2 46 46 92 4232
648	188675 52 361 1161 0.00000000576 31.25000000576 2 46 46 92 4232
649	188727 52 362 1162 0.00000000576 31.25000000576 2 46 46 92 4232
650	188779 52 363 1163 0.00000000576 31.25000000576 2 46 46 92 4232
651	188831 52 364 1164 0.00000000576 31.25000000576 2 46 46 92 4232
652	188883 52 365 1165 0.00000000576 31.25000000576 2 46 46 92 4232
653	188935 52 366 1166 0.00000000576 31.25000000576 2 46 46 92 4232
654	188987 52 367 1167 0.00000000576 31.25000000576 2 46 46 92 4232
655	189039 52 368 1168 0.00000000576 31.25000000576 2 46 46 92 4232
656	189091 52 369 1169 0.00000000576 31.25000000576 2 46 46 92 4232
657	189143 52 370 1170 0.00000000576 31.25000000576 2 46 46 92 4232
658	189195 52 371 1171 0.00000000576 31.25000000576 2 46 46 92 4232
659	189247 52 372 1172 0.00000000576 31.25000000576 2 46 46 92 4232
660	189299 52 373 1173 0.00000000576 31.25000000576 2 46 46 92 4232
661	189351 52 374 1174 0.00000000576 31.25000000576 2 46 46 92 4232
662	189403 52 375 1175 0.00000000576 31.25000000576 2 46 46 92 4232
663	189455 52 376 1176 0.00000000576 31.25000000576 2 46 46 92 4232
664	189507 52 377 1177 0.00000000576 31.25000000576 2 46 46 92 4232
665	189559 52 378 1178 0.00000000576 31.25000000576 2 46 46 92 4232
666	189611 52 379 1179 0.00000000576 31.25000000576 2 46 46 92 4232
667	189663 52 380 1180 0.00000000576 31.25000000576 2 46 46 92 4232
668	189715 52 381 1181 0.00000000576 31.25000000576 2 46 46 92 4232
669	189767 52 382 1182 0.00000000576 31.25000000576 2 46 46 92 4232
670	189819 52 383 1183 0.00000000576 31.25000000576 2 46 46 92 4232
671	189871 52 384 1184 0.00000000576 31.25000000576 2 46 46 92 4232
672	189923 50 529 1329 0.0000000576 31.2500000576 2 64 64 128 8192
673	189973 50 529 1329 0.0000000576 31.2500000576 2 64 64 128 8192
674	190023 50 530 1330 0.0000000576 31.2500000576 2 64 64 128 8192
675	190073 50 531 1331 0.0000000576 31.2500000576 2 64 64 128 8192
676	190123 50 531 1331 0.0000000576 31.2500000576 2 64 64 128 8192
677	190173 50 532 1332 0.0000000576 31.2500000576 2 64 64 128 8192
678	190223 50 533 1333 0.0000000576 31.2500000576 2 64 64 128 8192
679	190273 50 533 1333 0.0000000576 31.2500000576 2 64 64 128 8192
680	190323 50 534 1334 0.0000000576 31.2500000576 2 64 64 128 8192
681	190373 50 535 1335 0.0000000576 31.2500000576 2 64 64 128 8192
682	190423 50 535 1335 0.0000000576 31.2500000576 2 64 64 128 8192
683	190473 50 536 1336 0.0000000576 31.2500000576 2 64 64 128 8192
684	190523 50 537 1337 0.0000000576 31.2500000576 2 64 64 128 8192
685	190573 50 537 1337 0.0000000576 31.2500000576 2 64 64 128 8192
686	190623 50 538 1338 0.0000000576 31.2500000576 2 64 64 128 8192
687	190673 50 539 1339 0.0000000576 31.2500000576 2 64 64 128 8192
688	190723 50 539 1339 0.0000000576 31.2500000576 2 64 64 128 8192
689	190773 50 540 1340 0.0000000576 31.2500000576 2 64 64 128 8192
690	190823 50 541 1341 0.0000000576 31.2500000576 2 64 64 128 8192
691	190873 50 541 1341 0.0000000576 31.2500000576 2 64 64 128 8192
692	190923 50 542 1342 0.0000000576 31.2500000576 2 64 64 128 8192
693	190973 50 543 1343 0.0000000576 31.2500000576 2 64 64 128 8192
694	191023 50 543 1343 0.0000000576 31.2500000576 2 64 64 128 8192
695	191073 50 544 1344 0.0000000576 31.2500000576 2 64 64 128 8192
696	191123 50 545 1345 0.0000000576 31.2500000576 2 64 64 128 8192
697	191173 50 545 1345 0.0000000576 31.2500000576 2 64 64 128 8192
698	191223 50 546 1346 0.0000000576 31.2500000576 2 64 64 128 8192
699	191273 50 547 1347 0.0000000576 31.2500000576 2 64 64 128 8192
700	191323 50 547 1347 0.0000000576 31.2500000576 2 64 64 128 8192
701	191373 50 548 1348 0.0000000576 31.2500000576 2 64 64 128 8192
702	191423 50 549 1349 0.0000000576 31.2500000576 2 64 64 128 8192
703	191473 50 549 1349 0.0000000576 31.2500000576 2 64 64 128 8192
704	191523 50 550 1350 0.0000000576 31.2500000576 2 64 64 128 8192
705	191573 50 551 1351 0.0000000576 31.2500000576 2 64 64 128 8192
706	191623 50 551 1351 0.0000000576 31.2500000576 2 64 64 128 8192
707	191673 50 552 1352 0.0000000576 31.2500000576 2 64 64 128 8192
708	191723 50 553 1353 0.0000000576 31.2500000576 2 64 64 128 8192
709	191773 50 553 1353 0.0000000576 31.2500000576 2 64 64 128 8192
710	191823 50 554 1354 0.0000000576 31.2500000576 2 64 64 128 8192
711	191873 50 555 1355 0.0000000576 31.2500000576 2 64 64 128 8192
712	191923 50 555 1355 0.0000000576 31.2500000576 2 64 64 128 8192
713	191973 50 556 1356 0.0000000576 31.2500000576 2 64 64 128 8192
714	192023 50 557 1357 0.0000000576 31.2500000576 2 64 64 128 8192
715	192073 50 557 1357 0.0000000576 31.2500000576 2 64 64 128 8192
716	192123 50 558 1358 0.0000000576 31.2500000576 2 64 64 128 8192
717	192173 50 559 1359 0.0000000576 31.2500000576 2 64 64 128 8192
718	192223 50 559 1359 0.0000000576 31.2500000576 2 64 64 128 8192
719	192273 50 560 1360 0.0000000576 31.2500000576 2 64 64 128 8192
720	192323 50 561 1361 0.0000000576 31.2500000576 2 64 64 128 8192
721	192373 50 561 1361 0.0000000576 31.2500000576 2 64 64 128 8192
722	192423 50 562 1362 0.0000000576 31.2500000576 2 64 64 128 8192
723	192473 50 563 1363 0.0000000576 31.2500000576 2 64 64 128 8192
724	192523 50 563 1363 0.0000000576 31.2500000576 2 64 64 128 8192
725	192573 50 564 1364 0.0000000576 31.2500000576 2 64 64 128 8192
726	192623 50 565 1365 0.0000000576 31.2500000576 2 64 64 128 8192
727	192673 50 565 1365 0.0000000576 31.2500000576 2 64 64 128 8192
728	192723 50 566 1366 0.0000000576 31.2500000576 2 64 64 128 8192
729	192773 50 567 1367 0.0000000576 31.2500000576 2 64 64 128 8192
730	192823 50 567 1367 0.0000000576 31.2500000576 2 64 64 128 8192
731	192873 50 568 1368 0.0000000576 31.2500000576 2 64 64 128 8192
732	192923 50 569 1369 0.0000000576 31.2500000576 2 64 64 128 8192
733	192973 50 569 1369 0.0000000576 31.2500000576 2 64 64 128 8192
734	193023 50 570 1370 0.0000000576 31.2500000576 2 64 64 128 8192
735	193073 50 571 1371 0.0000000576 31.2500000576 2 64 64 128 8192
736	193123 50 571 1371 0.0000000576 31.2500000576 2 64 64 128 8192
737	193173 50 572 1372 0.0000000576 31.2500000576 2 64 64 128 8192
738	193223 50 573 1373 0.0000000576 31.2500000576 2 64 64 128 8192
739	193273 50 573 1373 0.0000000576 31.2500000576 2 64 64 128 8192
740	193323 50 574 1374 0.0000000576 31.2500000576 2 64 64 128 8192
741	193373 50 575 1375 0.0000000576 31.2500000576 2 64 64 128 8192
742	193423 50 575 1375 0.0000000576 31.2500000576 2 64 64 128 8192
743	193473 50 576 1376 0.0000000576 31.2500000576 2 64 64 128 8192
744	193523 50 577 1377 0.0000000576 31.2500000576 2 64 64 128 8192
745	193573 50 577 1377 0.0000000576 31.2500000576 2 64 64 128 8192
746	193623 50 578 1378 0.0000000576 31.2500000576 2 64 64 128 8192
747	193673 50 579 1379 0.0000000576 31.2500000576 2 64 64 128 8192
748	193723 50 579 1379 0.0000000576 31.2500000576 2 64 64 128 8192
749	193773 50 580 1380 0.0000000576 31.2500000576 2 64 64 128 8192
750	193823 50 581 1381 0.0000000576 31.2500000576 2 64 64 128 8192
751	193873 50 581 1381 0.0000000576 31.2500000576 2 64 64 128 8192
752	193923 50 582 1382 0.0000000576 31.2500000576 2 64 64 128 8192
753	193973 50 583 1383 0.0000000576 31.2500000576 2 64 64 128 8192
754	194023 50 583 1383 0.0000000576 31.2500000576 2 64 64 128 8192
755	194073 50 584 1384 0.0000000576 31.2500000576 2 64 64 128 8192
756	194123 50 585 1385 0.0000000576 31.2500000576 2 64 64 128 8192
757	194173 50 585 1385 0.0000000576 31.2500000576 2 64 64 128 8192
758	194223 50 586 1386 0.0000000576 31.2500000576 2 64 64 128 8192
759	194273 50 587 1387 0.0000000576 31.2500000576 2 64 64 128 8192
760	194323 50 587 1387 0.0000000576 31.2500000576 2 64 64 128 8192
761	194373 50 588 1388 0.0000000576 31.2500000576 2 64 64 128 8192
762	194423 50 589 1389 0.0000000576 31.2500000576 2 64 64 128 8192
763	194473 50 589 1389 0.0000000576 31.2500000576 2 64 64 128 8192
764	194523 50 590 1390 0.0000000576 31.2500000576 2 64 64 128 8192
765	194573 50 591 1391 0.0000000576 31.2500000576 2 64 64 128 8192
766	194623 50 591 1391 0.0000000576 31.2500000576 2 64 64 128 8192
767	194673 50 592 1392 0.0000000576 31.2500000576 2 64 64 128 8192
768	194723 50 593 1393 0.0000000576 31.2500000576 2 46 46 92 4232
769	194773 50 594 1394 0.0000000576 31.2500000576 2 46 46 92 4232
770	194823 50 595 1395 0.0000000576 31.2500000576 2 46 46 92 4232
771	194873 50 596 1396 0.0000000576 31.2500000576 2 46 46 92 4232
772	194923 50 597 1397 0.0000000576 31.2500000576 2 46 46 92 4232
773	194973 50 598 1398 0.0000000576 31.2500000576 2 46 46 92 4232
774	195023 50 599 1399 0.0000000576 31.2500000576 2 46 46 92 4232
775	195073 50 600 1400 0.0000000576 31.2500000576 2 46 46 92 4232
776	195123 50 601 1401 0.0000000576 31.2500000576 2 46 46 92 4232
777	195173 50 602 1402 0.0000000576 31.2500000576 2 46 46 92 4232
778	195223 50 603 1403 0.0000000576 31.2500000576 2 46 46 92 4232
779	195273 50 604 1404 0.0000000576 31.2500000576 2 46 46 92 4232
780	195323 50 605 1405 0.0000000576 31.2500000576 2 46 46 92 4232
781	195373 50 606 1406 0.0000000576 31.2500000576 2 46 46 92 4232
782	195423 50 607 1407 0.0000000576 31.2500000576 2 46 46 92 4232
783	195473 50 608 1408 0.0000000576 31.2500000576 2 46 46 92 4232
784	195523 50 609 1409 0.0000000576 31.2500000576 2 46 46 92 4232
785	195573 50 610 1410 0.0000000576 31.2500000576 2 46 46 92 4232
786	195623 50 611 1411 0.0000000576 31.2500000576 2 46 46 92 4232
787	195673 50 612 1412 0.0000000576 31.2500000576 2 46 46 92 4232
788	195723 50 613 1413 0.0000000576 31.2500000576 2 46 46 92 4232
789	195773 50 614 1414 0.0000000576 31.2500000576 2 46 46 92 4232
790	195823 50 615 1415 0.0000000576 31.2500000576 2 46 46 92 4232
791	195873 50 616 1416 0.0000000576 31.2500000576 2 46 46 92 4232
792	195923 50 617 1417 0.0000000576 31.2500000576 2 46 46 92 4232
793	195973 50 618 1418 0.0000000576 31.2500000576 2 46 46 92 4232
794	196023 50 619 1419 0.0000000576 31.2500000576 2 46 46 92 4232
795	196073 50 620 1420 0.0000000576 31.2500000576 2 46 46 92 4232
796	196123 50 621 1421 0.0000000576 31.2500000576 2 46 46 92 4232
797	196173 50 622 1422 0.0000000576 31.2500000576 2 46 46 92 4232
798	196223 50 623 1423 0.0000000576 31.2500000576 2 46 46 92 4232
799	196273 50 624 1424 0.0000000576 31.2500000576 2 46 46 92 4232
800	196323 17 1521 1521 60 60 1 1250 1250 1250 1562500
801	196340 17 1539 1539 60 60 1 1258 1258 1258 1582564

