file 217892 1655852520                                          
version 2
run General-0-20220622-01:01:48-1811
attr configname General
attr datetime 20220622-01:01:48
attr experiment General
attr inifile 2PC.ini
attr iterationvars ""
attr iterationvarsf ""
attr measurement ""
attr network KFatTreeNew
attr processid 1811
attr repetition 0
attr replication #0
attr resultdir results
attr runnumber 0
attr seedset 0
param **.k 4
param **.clients 1
param **.client[*].numApps 1
param **.client[*].app[0].typename "\"ClientApp\""
param **.client[*].app[0].sendInterval 0.00s
param **.client[*].app[0].destAddresses "\"hosts.coordinator\""
param **.coordinator.numApps 1
param **.coordinator.app[0].typename "\"CoordApp\""
param **.coordinator.app[0].destAddresses "\"224.0.1.3\""
param **.coordinator.app[0].multicastAddress "\"224.0.1.3\""
param **.coordinator.app[0].numReplicas 3
param **.replica[1].numApps 1
param **.replica[3].numApps 1
param **.replica[7].numApps 1
param **.replica[*].app[0].numReplicas 1
param **.replica[*].app[0].typename "\"ReplicaApp\""
param **.replica[*].app[0].destAddresses "\"hosts.coordinator\""
param **.replica[*].app[0].joinLocalMulticastGroups true
param **.replica[*].app[0].multicastAddress "\"224.0.1.3\""
param **.replica[*].app[0].totalSuccessProbability 0.95
param **.app[0].startTime 0s
param **.app[0].stopTime 5s
param **.app[0].delayLimit 3s
param **.app[0].localPort 100
param **.app[0].destPort 100
param **.controller.replicaType "\"inet.applications.udpapp.CoordApp inet.applications.udpapp.ReplicaApp\""
param **.configurator.config "xmldoc(\"config.xml\")"
param **.configurator.addStaticRoutes true

vector 0 KFatTreeNew.hosts.client[0].app[0] packetSent:vector(packetBytes) ETV
attr interpolationmode none
attr source packetSent
attr title "packets sent, vector(packetBytes)"
vector 1 KFatTreeNew.coreSwitch[0].eth[0].encap encapPk:vector(packetBytes) ETV
attr interpolationmode none
attr source encapPk
attr title "packets encapsulated, vector(packetBytes)"
vector 2 KFatTreeNew.coreSwitch[0].eth[1].encap encapPk:vector(packetBytes) ETV
attr interpolationmode none
attr source encapPk
attr title "packets encapsulated, vector(packetBytes)"
vector 3 KFatTreeNew.coreSwitch[0].eth[2].encap encapPk:vector(packetBytes) ETV
attr interpolationmode none
attr source encapPk
attr title "packets encapsulated, vector(packetBytes)"
vector 4 KFatTreeNew.coreSwitch[0].eth[3].encap encapPk:vector(packetBytes) ETV
attr interpolationmode none
attr source encapPk
attr title "packets encapsulated, vector(packetBytes)"
vector 5 KFatTreeNew.coreSwitch[1].eth[0].encap encapPk:vector(packetBytes) ETV
attr interpolationmode none
attr source encapPk
attr title "packets encapsulated, vector(packetBytes)"
vector 6 KFatTreeNew.coreSwitch[1].eth[1].encap encapPk:vector(packetBytes) ETV
attr interpolationmode none
attr source encapPk
attr title "packets encapsulated, vector(packetBytes)"
vector 7 KFatTreeNew.coreSwitch[1].eth[2].encap encapPk:vector(packetBytes) ETV
attr interpolationmode none
attr source encapPk
attr title "packets encapsulated, vector(packetBytes)"
vector 8 KFatTreeNew.coreSwitch[1].eth[3].encap encapPk:vector(packetBytes) ETV
attr interpolationmode none
attr source encapPk
attr title "packets encapsulated, vector(packetBytes)"
vector 9 KFatTreeNew.coreSwitch[2].eth[0].encap encapPk:vector(packetBytes) ETV
attr interpolationmode none
attr source encapPk
attr title "packets encapsulated, vector(packetBytes)"
vector 10 KFatTreeNew.coreSwitch[2].eth[1].encap encapPk:vector(packetBytes) ETV
attr interpolationmode none
attr source encapPk
attr title "packets encapsulated, vector(packetBytes)"
vector 11 KFatTreeNew.coreSwitch[2].eth[2].encap encapPk:vector(packetBytes) ETV
attr interpolationmode none
attr source encapPk
attr title "packets encapsulated, vector(packetBytes)"
vector 12 KFatTreeNew.coreSwitch[2].eth[3].encap encapPk:vector(packetBytes) ETV
attr interpolationmode none
attr source encapPk
attr title "packets encapsulated, vector(packetBytes)"
vector 13 KFatTreeNew.coreSwitch[3].eth[0].encap encapPk:vector(packetBytes) ETV
attr interpolationmode none
attr source encapPk
attr title "packets encapsulated, vector(packetBytes)"
vector 14 KFatTreeNew.coreSwitch[3].eth[1].encap encapPk:vector(packetBytes) ETV
attr interpolationmode none
attr source encapPk
attr title "packets encapsulated, vector(packetBytes)"
vector 15 KFatTreeNew.coreSwitch[3].eth[2].encap encapPk:vector(packetBytes) ETV
attr interpolationmode none
attr source encapPk
attr title "packets encapsulated, vector(packetBytes)"
vector 16 KFatTreeNew.coreSwitch[3].eth[3].encap encapPk:vector(packetBytes) ETV
attr interpolationmode none
attr source encapPk
attr title "packets encapsulated, vector(packetBytes)"
vector 17 KFatTreeNew.pod[0].aggregateSwitch[0].eth[0].encap encapPk:vector(packetBytes) ETV
attr interpolationmode none
attr source encapPk
attr title "packets encapsulated, vector(packetBytes)"
vector 18 KFatTreeNew.pod[0].aggregateSwitch[0].eth[1].encap encapPk:vector(packetBytes) ETV
attr interpolationmode none
attr source encapPk
attr title "packets encapsulated, vector(packetBytes)"
vector 19 KFatTreeNew.pod[0].aggregateSwitch[0].eth[2].encap encapPk:vector(packetBytes) ETV
attr interpolationmode none
attr source encapPk
attr title "packets encapsulated, vector(packetBytes)"
vector 20 KFatTreeNew.pod[0].aggregateSwitch[0].eth[3].encap encapPk:vector(packetBytes) ETV
attr interpolationmode none
attr source encapPk
attr title "packets encapsulated, vector(packetBytes)"
vector 21 KFatTreeNew.pod[0].aggregateSwitch[1].eth[0].encap encapPk:vector(packetBytes) ETV
attr interpolationmode none
attr source encapPk
attr title "packets encapsulated, vector(packetBytes)"
vector 22 KFatTreeNew.pod[0].aggregateSwitch[1].eth[1].encap encapPk:vector(packetBytes) ETV
attr interpolationmode none
attr source encapPk
attr title "packets encapsulated, vector(packetBytes)"
vector 23 KFatTreeNew.pod[0].aggregateSwitch[1].eth[2].encap encapPk:vector(packetBytes) ETV
attr interpolationmode none
attr source encapPk
attr title "packets encapsulated, vector(packetBytes)"
vector 24 KFatTreeNew.pod[0].aggregateSwitch[1].eth[3].encap encapPk:vector(packetBytes) ETV
attr interpolationmode none
attr source encapPk
attr title "packets encapsulated, vector(packetBytes)"
vector 25 KFatTreeNew.pod[0].edgeSwitch[0].eth[0].encap encapPk:vector(packetBytes) ETV
attr interpolationmode none
attr source encapPk
attr title "packets encapsulated, vector(packetBytes)"
vector 26 KFatTreeNew.pod[0].edgeSwitch[0].eth[1].encap encapPk:vector(packetBytes) ETV
attr interpolationmode none
attr source encapPk
attr title "packets encapsulated, vector(packetBytes)"
vector 27 KFatTreeNew.pod[0].edgeSwitch[0].eth[2].encap encapPk:vector(packetBytes) ETV
attr interpolationmode none
attr source encapPk
attr title "packets encapsulated, vector(packetBytes)"
vector 28 KFatTreeNew.pod[0].edgeSwitch[0].eth[3].encap encapPk:vector(packetBytes) ETV
attr interpolationmode none
attr source encapPk
attr title "packets encapsulated, vector(packetBytes)"
vector 29 KFatTreeNew.pod[0].edgeSwitch[1].eth[0].encap encapPk:vector(packetBytes) ETV
attr interpolationmode none
attr source encapPk
attr title "packets encapsulated, vector(packetBytes)"
vector 30 KFatTreeNew.pod[0].edgeSwitch[1].eth[1].encap encapPk:vector(packetBytes) ETV
attr interpolationmode none
attr source encapPk
attr title "packets encapsulated, vector(packetBytes)"
vector 31 KFatTreeNew.pod[0].edgeSwitch[1].eth[2].encap encapPk:vector(packetBytes) ETV
attr interpolationmode none
attr source encapPk
attr title "packets encapsulated, vector(packetBytes)"
vector 32 KFatTreeNew.pod[0].edgeSwitch[1].eth[3].encap encapPk:vector(packetBytes) ETV
attr interpolationmode none
attr source encapPk
attr title "packets encapsulated, vector(packetBytes)"
vector 33 KFatTreeNew.pod[1].aggregateSwitch[0].eth[0].encap encapPk:vector(packetBytes) ETV
attr interpolationmode none
attr source encapPk
attr title "packets encapsulated, vector(packetBytes)"
vector 34 KFatTreeNew.pod[1].aggregateSwitch[0].eth[1].encap encapPk:vector(packetBytes) ETV
attr interpolationmode none
attr source encapPk
attr title "packets encapsulated, vector(packetBytes)"
vector 35 KFatTreeNew.pod[1].aggregateSwitch[0].eth[2].encap encapPk:vector(packetBytes) ETV
attr interpolationmode none
attr source encapPk
attr title "packets encapsulated, vector(packetBytes)"
vector 36 KFatTreeNew.pod[1].aggregateSwitch[0].eth[3].encap encapPk:vector(packetBytes) ETV
attr interpolationmode none
attr source encapPk
attr title "packets encapsulated, vector(packetBytes)"
vector 37 KFatTreeNew.pod[1].aggregateSwitch[1].eth[0].encap encapPk:vector(packetBytes) ETV
attr interpolationmode none
attr source encapPk
attr title "packets encapsulated, vector(packetBytes)"
vector 38 KFatTreeNew.pod[1].aggregateSwitch[1].eth[1].encap encapPk:vector(packetBytes) ETV
attr interpolationmode none
attr source encapPk
attr title "packets encapsulated, vector(packetBytes)"
vector 39 KFatTreeNew.pod[1].aggregateSwitch[1].eth[2].encap encapPk:vector(packetBytes) ETV
attr interpolationmode none
attr source encapPk
attr title "packets encapsulated, vector(packetBytes)"
vector 40 KFatTreeNew.pod[1].aggregateSwitch[1].eth[3].encap encapPk:vector(packetBytes) ETV
attr interpolationmode none
attr source encapPk
attr title "packets encapsulated, vector(packetBytes)"
vector 41 KFatTreeNew.pod[1].edgeSwitch[0].eth[0].encap encapPk:vector(packetBytes) ETV
attr interpolationmode none
attr source encapPk
attr title "packets encapsulated, vector(packetBytes)"
vector 42 KFatTreeNew.pod[1].edgeSwitch[0].eth[1].encap encapPk:vector(packetBytes) ETV
attr interpolationmode none
attr source encapPk
attr title "packets encapsulated, vector(packetBytes)"
vector 43 KFatTreeNew.pod[1].edgeSwitch[0].eth[2].encap encapPk:vector(packetBytes) ETV
attr interpolationmode none
attr source encapPk
attr title "packets encapsulated, vector(packetBytes)"
vector 44 KFatTreeNew.pod[1].edgeSwitch[0].eth[3].encap encapPk:vector(packetBytes) ETV
attr interpolationmode none
attr source encapPk
attr title "packets encapsulated, vector(packetBytes)"
vector 45 KFatTreeNew.pod[1].edgeSwitch[1].eth[0].encap encapPk:vector(packetBytes) ETV
attr interpolationmode none
attr source encapPk
attr title "packets encapsulated, vector(packetBytes)"
vector 46 KFatTreeNew.pod[1].edgeSwitch[1].eth[1].encap encapPk:vector(packetBytes) ETV
attr interpolationmode none
attr source encapPk
attr title "packets encapsulated, vector(packetBytes)"
vector 47 KFatTreeNew.pod[1].edgeSwitch[1].eth[2].encap encapPk:vector(packetBytes) ETV
attr interpolationmode none
attr source encapPk
attr title "packets encapsulated, vector(packetBytes)"
vector 48 KFatTreeNew.pod[1].edgeSwitch[1].eth[3].encap encapPk:vector(packetBytes) ETV
attr interpolationmode none
attr source encapPk
attr title "packets encapsulated, vector(packetBytes)"
vector 49 KFatTreeNew.pod[2].aggregateSwitch[0].eth[0].encap encapPk:vector(packetBytes) ETV
attr interpolationmode none
attr source encapPk
attr title "packets encapsulated, vector(packetBytes)"
vector 50 KFatTreeNew.pod[2].aggregateSwitch[0].eth[1].encap encapPk:vector(packetBytes) ETV
attr interpolationmode none
attr source encapPk
attr title "packets encapsulated, vector(packetBytes)"
vector 51 KFatTreeNew.pod[2].aggregateSwitch[0].eth[2].encap encapPk:vector(packetBytes) ETV
attr interpolationmode none
attr source encapPk
attr title "packets encapsulated, vector(packetBytes)"
vector 52 KFatTreeNew.pod[2].aggregateSwitch[0].eth[3].encap encapPk:vector(packetBytes) ETV
attr interpolationmode none
attr source encapPk
attr title "packets encapsulated, vector(packetBytes)"
vector 53 KFatTreeNew.pod[2].aggregateSwitch[1].eth[0].encap encapPk:vector(packetBytes) ETV
attr interpolationmode none
attr source encapPk
attr title "packets encapsulated, vector(packetBytes)"
vector 54 KFatTreeNew.pod[2].aggregateSwitch[1].eth[1].encap encapPk:vector(packetBytes) ETV
attr interpolationmode none
attr source encapPk
attr title "packets encapsulated, vector(packetBytes)"
vector 55 KFatTreeNew.pod[2].aggregateSwitch[1].eth[2].encap encapPk:vector(packetBytes) ETV
attr interpolationmode none
attr source encapPk
attr title "packets encapsulated, vector(packetBytes)"
vector 56 KFatTreeNew.pod[2].aggregateSwitch[1].eth[3].encap encapPk:vector(packetBytes) ETV
attr interpolationmode none
attr source encapPk
attr title "packets encapsulated, vector(packetBytes)"
vector 57 KFatTreeNew.pod[2].edgeSwitch[0].eth[0].encap encapPk:vector(packetBytes) ETV
attr interpolationmode none
attr source encapPk
attr title "packets encapsulated, vector(packetBytes)"
vector 58 KFatTreeNew.pod[2].edgeSwitch[0].eth[1].encap encapPk:vector(packetBytes) ETV
attr interpolationmode none
attr source encapPk
attr title "packets encapsulated, vector(packetBytes)"
vector 59 KFatTreeNew.pod[2].edgeSwitch[0].eth[2].encap encapPk:vector(packetBytes) ETV
attr interpolationmode none
attr source encapPk
attr title "packets encapsulated, vector(packetBytes)"
vector 60 KFatTreeNew.pod[2].edgeSwitch[0].eth[3].encap encapPk:vector(packetBytes) ETV
attr interpolationmode none
attr source encapPk
attr title "packets encapsulated, vector(packetBytes)"
vector 61 KFatTreeNew.pod[2].edgeSwitch[1].eth[0].encap encapPk:vector(packetBytes) ETV
attr interpolationmode none
attr source encapPk
attr title "packets encapsulated, vector(packetBytes)"
vector 62 KFatTreeNew.pod[2].edgeSwitch[1].eth[1].encap encapPk:vector(packetBytes) ETV
attr interpolationmode none
attr source encapPk
attr title "packets encapsulated, vector(packetBytes)"
vector 63 KFatTreeNew.pod[2].edgeSwitch[1].eth[2].encap encapPk:vector(packetBytes) ETV
attr interpolationmode none
attr source encapPk
attr title "packets encapsulated, vector(packetBytes)"
vector 64 KFatTreeNew.pod[2].edgeSwitch[1].eth[3].encap encapPk:vector(packetBytes) ETV
attr interpolationmode none
attr source encapPk
attr title "packets encapsulated, vector(packetBytes)"
vector 65 KFatTreeNew.pod[3].aggregateSwitch[0].eth[0].encap encapPk:vector(packetBytes) ETV
attr interpolationmode none
attr source encapPk
attr title "packets encapsulated, vector(packetBytes)"
vector 66 KFatTreeNew.pod[3].aggregateSwitch[0].eth[1].encap encapPk:vector(packetBytes) ETV
attr interpolationmode none
attr source encapPk
attr title "packets encapsulated, vector(packetBytes)"
vector 67 KFatTreeNew.pod[3].aggregateSwitch[0].eth[2].encap encapPk:vector(packetBytes) ETV
attr interpolationmode none
attr source encapPk
attr title "packets encapsulated, vector(packetBytes)"
vector 68 KFatTreeNew.pod[3].aggregateSwitch[0].eth[3].encap encapPk:vector(packetBytes) ETV
attr interpolationmode none
attr source encapPk
attr title "packets encapsulated, vector(packetBytes)"
vector 69 KFatTreeNew.pod[3].aggregateSwitch[1].eth[0].encap encapPk:vector(packetBytes) ETV
attr interpolationmode none
attr source encapPk
attr title "packets encapsulated, vector(packetBytes)"
vector 70 KFatTreeNew.pod[3].aggregateSwitch[1].eth[1].encap encapPk:vector(packetBytes) ETV
attr interpolationmode none
attr source encapPk
attr title "packets encapsulated, vector(packetBytes)"
vector 71 KFatTreeNew.pod[3].aggregateSwitch[1].eth[2].encap encapPk:vector(packetBytes) ETV
attr interpolationmode none
attr source encapPk
attr title "packets encapsulated, vector(packetBytes)"
vector 72 KFatTreeNew.pod[3].aggregateSwitch[1].eth[3].encap encapPk:vector(packetBytes) ETV
attr interpolationmode none
attr source encapPk
attr title "packets encapsulated, vector(packetBytes)"
vector 73 KFatTreeNew.pod[3].edgeSwitch[0].eth[0].encap encapPk:vector(packetBytes) ETV
attr interpolationmode none
attr source encapPk
attr title "packets encapsulated, vector(packetBytes)"
vector 74 KFatTreeNew.pod[3].edgeSwitch[0].eth[1].encap encapPk:vector(packetBytes) ETV
attr interpolationmode none
attr source encapPk
attr title "packets encapsulated, vector(packetBytes)"
vector 75 KFatTreeNew.pod[3].edgeSwitch[0].eth[2].encap encapPk:vector(packetBytes) ETV
attr interpolationmode none
attr source encapPk
attr title "packets encapsulated, vector(packetBytes)"
vector 76 KFatTreeNew.pod[3].edgeSwitch[0].eth[3].encap encapPk:vector(packetBytes) ETV
attr interpolationmode none
attr source encapPk
attr title "packets encapsulated, vector(packetBytes)"
vector 77 KFatTreeNew.pod[3].edgeSwitch[1].eth[0].encap encapPk:vector(packetBytes) ETV
attr interpolationmode none
attr source encapPk
attr title "packets encapsulated, vector(packetBytes)"
vector 78 KFatTreeNew.pod[3].edgeSwitch[1].eth[1].encap encapPk:vector(packetBytes) ETV
attr interpolationmode none
attr source encapPk
attr title "packets encapsulated, vector(packetBytes)"
vector 79 KFatTreeNew.pod[3].edgeSwitch[1].eth[2].encap encapPk:vector(packetBytes) ETV
attr interpolationmode none
attr source encapPk
attr title "packets encapsulated, vector(packetBytes)"
vector 80 KFatTreeNew.pod[3].edgeSwitch[1].eth[3].encap encapPk:vector(packetBytes) ETV
attr interpolationmode none
attr source encapPk
attr title "packets encapsulated, vector(packetBytes)"
vector 81 KFatTreeNew.hosts.clientSwitch.eth[0].encap encapPk:vector(packetBytes) ETV
attr interpolationmode none
attr source encapPk
attr title "packets encapsulated, vector(packetBytes)"
vector 82 KFatTreeNew.hosts.clientSwitch.eth[1].encap encapPk:vector(packetBytes) ETV
attr interpolationmode none
attr source encapPk
attr title "packets encapsulated, vector(packetBytes)"
vector 83 KFatTreeNew.hosts.replica[0].eth[0].encap encapPk:vector(packetBytes) ETV
attr interpolationmode none
attr source encapPk
attr title "packets encapsulated, vector(packetBytes)"
vector 84 KFatTreeNew.hosts.replica[1].eth[0].encap encapPk:vector(packetBytes) ETV
attr interpolationmode none
attr source encapPk
attr title "packets encapsulated, vector(packetBytes)"
vector 85 KFatTreeNew.hosts.replica[2].eth[0].encap encapPk:vector(packetBytes) ETV
attr interpolationmode none
attr source encapPk
attr title "packets encapsulated, vector(packetBytes)"
vector 86 KFatTreeNew.hosts.replica[3].eth[0].encap encapPk:vector(packetBytes) ETV
attr interpolationmode none
attr source encapPk
attr title "packets encapsulated, vector(packetBytes)"
vector 87 KFatTreeNew.hosts.replica[4].eth[0].encap encapPk:vector(packetBytes) ETV
attr interpolationmode none
attr source encapPk
attr title "packets encapsulated, vector(packetBytes)"
vector 88 KFatTreeNew.hosts.replica[5].eth[0].encap encapPk:vector(packetBytes) ETV
attr interpolationmode none
attr source encapPk
attr title "packets encapsulated, vector(packetBytes)"
vector 89 KFatTreeNew.hosts.replica[6].eth[0].encap encapPk:vector(packetBytes) ETV
attr interpolationmode none
attr source encapPk
attr title "packets encapsulated, vector(packetBytes)"
vector 90 KFatTreeNew.hosts.replica[7].eth[0].encap encapPk:vector(packetBytes) ETV
attr interpolationmode none
attr source encapPk
attr title "packets encapsulated, vector(packetBytes)"
vector 91 KFatTreeNew.hosts.replica[8].eth[0].encap encapPk:vector(packetBytes) ETV
attr interpolationmode none
attr source encapPk
attr title "packets encapsulated, vector(packetBytes)"
vector 92 KFatTreeNew.hosts.replica[9].eth[0].encap encapPk:vector(packetBytes) ETV
attr interpolationmode none
attr source encapPk
attr title "packets encapsulated, vector(packetBytes)"
vector 93 KFatTreeNew.hosts.replica[10].eth[0].encap encapPk:vector(packetBytes) ETV
attr interpolationmode none
attr source encapPk
attr title "packets encapsulated, vector(packetBytes)"
vector 94 KFatTreeNew.hosts.replica[11].eth[0].encap encapPk:vector(packetBytes) ETV
attr interpolationmode none
attr source encapPk
attr title "packets encapsulated, vector(packetBytes)"
vector 95 KFatTreeNew.hosts.replica[12].eth[0].encap encapPk:vector(packetBytes) ETV
attr interpolationmode none
attr source encapPk
attr title "packets encapsulated, vector(packetBytes)"
vector 96 KFatTreeNew.hosts.replica[13].eth[0].encap encapPk:vector(packetBytes) ETV
attr interpolationmode none
attr source encapPk
attr title "packets encapsulated, vector(packetBytes)"
vector 97 KFatTreeNew.hosts.client[0].udp packetSent:vector(packetBytes) ETV
attr interpolationmode none
attr source packetSent
attr title "packets sent, vector(packetBytes)"
vector 98 KFatTreeNew.coreSwitch[0].eth[0].mac packetReceivedFromUpper:vector(packetBytes) ETV
attr interpolationmode none
attr source packetReceivedFromUpper
attr title "packet bytes from higher layer, vector(packetBytes)"
vector 99 KFatTreeNew.coreSwitch[0].eth[0].mac.queue packetPushed:vector(packetBytes) ETV
attr interpolationmode none
attr title "packet pushed, vector(packetBytes)"
vector 100 KFatTreeNew.coreSwitch[0].eth[0].mac.queue queueLength:vector ETV
attr interpolationmode sample-hold
attr source "count(packetPushed) - count(packetPopped) - count(packetRemoved) - count(packetDropped)"
attr title "queue length, vector"
vector 101 KFatTreeNew.coreSwitch[0].eth[0].mac.queue packetPopped:vector(packetBytes) ETV
attr interpolationmode none
attr title "packet popped, vector(packetBytes)"
vector 102 KFatTreeNew.coreSwitch[0].eth[0].mac.queue queueingTime:vector ETV
attr interpolationmode none
attr source queueingTime(packetPopped)
attr title "queueing times, vector"
attr unit s
vector 103 KFatTreeNew.coreSwitch[0].eth[1].mac packetReceivedFromUpper:vector(packetBytes) ETV
attr interpolationmode none
attr source packetReceivedFromUpper
attr title "packet bytes from higher layer, vector(packetBytes)"
vector 104 KFatTreeNew.coreSwitch[0].eth[1].mac.queue packetPushed:vector(packetBytes) ETV
attr interpolationmode none
attr title "packet pushed, vector(packetBytes)"
vector 105 KFatTreeNew.coreSwitch[0].eth[1].mac.queue queueLength:vector ETV
attr interpolationmode sample-hold
attr source "count(packetPushed) - count(packetPopped) - count(packetRemoved) - count(packetDropped)"
attr title "queue length, vector"
vector 106 KFatTreeNew.coreSwitch[0].eth[1].mac.queue packetPopped:vector(packetBytes) ETV
attr interpolationmode none
attr title "packet popped, vector(packetBytes)"
vector 107 KFatTreeNew.coreSwitch[0].eth[1].mac.queue queueingTime:vector ETV
attr interpolationmode none
attr source queueingTime(packetPopped)
attr title "queueing times, vector"
attr unit s
vector 108 KFatTreeNew.coreSwitch[0].eth[2].mac packetReceivedFromUpper:vector(packetBytes) ETV
attr interpolationmode none
attr source packetReceivedFromUpper
attr title "packet bytes from higher layer, vector(packetBytes)"
vector 109 KFatTreeNew.coreSwitch[0].eth[2].mac.queue packetPushed:vector(packetBytes) ETV
attr interpolationmode none
attr title "packet pushed, vector(packetBytes)"
vector 110 KFatTreeNew.coreSwitch[0].eth[2].mac.queue queueLength:vector ETV
attr interpolationmode sample-hold
attr source "count(packetPushed) - count(packetPopped) - count(packetRemoved) - count(packetDropped)"
attr title "queue length, vector"
vector 111 KFatTreeNew.coreSwitch[0].eth[2].mac.queue packetPopped:vector(packetBytes) ETV
attr interpolationmode none
attr title "packet popped, vector(packetBytes)"
vector 112 KFatTreeNew.coreSwitch[0].eth[2].mac.queue queueingTime:vector ETV
attr interpolationmode none
attr source queueingTime(packetPopped)
attr title "queueing times, vector"
attr unit s
vector 113 KFatTreeNew.coreSwitch[0].eth[3].mac packetReceivedFromUpper:vector(packetBytes) ETV
attr interpolationmode none
attr source packetReceivedFromUpper
attr title "packet bytes from higher layer, vector(packetBytes)"
vector 114 KFatTreeNew.coreSwitch[0].eth[3].mac.queue packetPushed:vector(packetBytes) ETV
attr interpolationmode none
attr title "packet pushed, vector(packetBytes)"
vector 115 KFatTreeNew.coreSwitch[0].eth[3].mac.queue queueLength:vector ETV
attr interpolationmode sample-hold
attr source "count(packetPushed) - count(packetPopped) - count(packetRemoved) - count(packetDropped)"
attr title "queue length, vector"
vector 116 KFatTreeNew.coreSwitch[0].eth[3].mac.queue packetPopped:vector(packetBytes) ETV
attr interpolationmode none
attr title "packet popped, vector(packetBytes)"
vector 117 KFatTreeNew.coreSwitch[0].eth[3].mac.queue queueingTime:vector ETV
attr interpolationmode none
attr source queueingTime(packetPopped)
attr title "queueing times, vector"
attr unit s
vector 118 KFatTreeNew.coreSwitch[1].eth[0].mac packetReceivedFromUpper:vector(packetBytes) ETV
attr interpolationmode none
attr source packetReceivedFromUpper
attr title "packet bytes from higher layer, vector(packetBytes)"
vector 119 KFatTreeNew.coreSwitch[1].eth[0].mac.queue packetPushed:vector(packetBytes) ETV
attr interpolationmode none
attr title "packet pushed, vector(packetBytes)"
vector 120 KFatTreeNew.coreSwitch[1].eth[0].mac.queue queueLength:vector ETV
attr interpolationmode sample-hold
attr source "count(packetPushed) - count(packetPopped) - count(packetRemoved) - count(packetDropped)"
attr title "queue length, vector"
vector 121 KFatTreeNew.coreSwitch[1].eth[0].mac.queue packetPopped:vector(packetBytes) ETV
attr interpolationmode none
attr title "packet popped, vector(packetBytes)"
vector 122 KFatTreeNew.coreSwitch[1].eth[0].mac.queue queueingTime:vector ETV
attr interpolationmode none
attr source queueingTime(packetPopped)
attr title "queueing times, vector"
attr unit s
vector 123 KFatTreeNew.coreSwitch[1].eth[1].mac packetReceivedFromUpper:vector(packetBytes) ETV
attr interpolationmode none
attr source packetReceivedFromUpper
attr title "packet bytes from higher layer, vector(packetBytes)"
vector 124 KFatTreeNew.coreSwitch[1].eth[1].mac.queue packetPushed:vector(packetBytes) ETV
attr interpolationmode none
attr title "packet pushed, vector(packetBytes)"
vector 125 KFatTreeNew.coreSwitch[1].eth[1].mac.queue queueLength:vector ETV
attr interpolationmode sample-hold
attr source "count(packetPushed) - count(packetPopped) - count(packetRemoved) - count(packetDropped)"
attr title "queue length, vector"
vector 126 KFatTreeNew.coreSwitch[1].eth[1].mac.queue packetPopped:vector(packetBytes) ETV
attr interpolationmode none
attr title "packet popped, vector(packetBytes)"
vector 127 KFatTreeNew.coreSwitch[1].eth[1].mac.queue queueingTime:vector ETV
attr interpolationmode none
attr source queueingTime(packetPopped)
attr title "queueing times, vector"
attr unit s
vector 128 KFatTreeNew.coreSwitch[1].eth[2].mac packetReceivedFromUpper:vector(packetBytes) ETV
attr interpolationmode none
attr source packetReceivedFromUpper
attr title "packet bytes from higher layer, vector(packetBytes)"
vector 129 KFatTreeNew.coreSwitch[1].eth[2].mac.queue packetPushed:vector(packetBytes) ETV
attr interpolationmode none
attr title "packet pushed, vector(packetBytes)"
vector 130 KFatTreeNew.coreSwitch[1].eth[2].mac.queue queueLength:vector ETV
attr interpolationmode sample-hold
attr source "count(packetPushed) - count(packetPopped) - count(packetRemoved) - count(packetDropped)"
attr title "queue length, vector"
vector 131 KFatTreeNew.coreSwitch[1].eth[2].mac.queue packetPopped:vector(packetBytes) ETV
attr interpolationmode none
attr title "packet popped, vector(packetBytes)"
vector 132 KFatTreeNew.coreSwitch[1].eth[2].mac.queue queueingTime:vector ETV
attr interpolationmode none
attr source queueingTime(packetPopped)
attr title "queueing times, vector"
attr unit s
vector 133 KFatTreeNew.coreSwitch[1].eth[3].mac packetReceivedFromUpper:vector(packetBytes) ETV
attr interpolationmode none
attr source packetReceivedFromUpper
attr title "packet bytes from higher layer, vector(packetBytes)"
vector 134 KFatTreeNew.coreSwitch[1].eth[3].mac.queue packetPushed:vector(packetBytes) ETV
attr interpolationmode none
attr title "packet pushed, vector(packetBytes)"
vector 135 KFatTreeNew.coreSwitch[1].eth[3].mac.queue queueLength:vector ETV
attr interpolationmode sample-hold
attr source "count(packetPushed) - count(packetPopped) - count(packetRemoved) - count(packetDropped)"
attr title "queue length, vector"
vector 136 KFatTreeNew.coreSwitch[1].eth[3].mac.queue packetPopped:vector(packetBytes) ETV
attr interpolationmode none
attr title "packet popped, vector(packetBytes)"
vector 137 KFatTreeNew.coreSwitch[1].eth[3].mac.queue queueingTime:vector ETV
attr interpolationmode none
attr source queueingTime(packetPopped)
attr title "queueing times, vector"
attr unit s
vector 138 KFatTreeNew.coreSwitch[2].eth[0].mac packetReceivedFromUpper:vector(packetBytes) ETV
attr interpolationmode none
attr source packetReceivedFromUpper
attr title "packet bytes from higher layer, vector(packetBytes)"
vector 139 KFatTreeNew.coreSwitch[2].eth[0].mac.queue packetPushed:vector(packetBytes) ETV
attr interpolationmode none
attr title "packet pushed, vector(packetBytes)"
vector 140 KFatTreeNew.coreSwitch[2].eth[0].mac.queue queueLength:vector ETV
attr interpolationmode sample-hold
attr source "count(packetPushed) - count(packetPopped) - count(packetRemoved) - count(packetDropped)"
attr title "queue length, vector"
vector 141 KFatTreeNew.coreSwitch[2].eth[0].mac.queue packetPopped:vector(packetBytes) ETV
attr interpolationmode none
attr title "packet popped, vector(packetBytes)"
vector 142 KFatTreeNew.coreSwitch[2].eth[0].mac.queue queueingTime:vector ETV
attr interpolationmode none
attr source queueingTime(packetPopped)
attr title "queueing times, vector"
attr unit s
vector 143 KFatTreeNew.coreSwitch[2].eth[1].mac packetReceivedFromUpper:vector(packetBytes) ETV
attr interpolationmode none
attr source packetReceivedFromUpper
attr title "packet bytes from higher layer, vector(packetBytes)"
vector 144 KFatTreeNew.coreSwitch[2].eth[1].mac.queue packetPushed:vector(packetBytes) ETV
attr interpolationmode none
attr title "packet pushed, vector(packetBytes)"
vector 145 KFatTreeNew.coreSwitch[2].eth[1].mac.queue queueLength:vector ETV
attr interpolationmode sample-hold
attr source "count(packetPushed) - count(packetPopped) - count(packetRemoved) - count(packetDropped)"
attr title "queue length, vector"
vector 146 KFatTreeNew.coreSwitch[2].eth[1].mac.queue packetPopped:vector(packetBytes) ETV
attr interpolationmode none
attr title "packet popped, vector(packetBytes)"
vector 147 KFatTreeNew.coreSwitch[2].eth[1].mac.queue queueingTime:vector ETV
attr interpolationmode none
attr source queueingTime(packetPopped)
attr title "queueing times, vector"
attr unit s
vector 148 KFatTreeNew.coreSwitch[2].eth[2].mac packetReceivedFromUpper:vector(packetBytes) ETV
attr interpolationmode none
attr source packetReceivedFromUpper
attr title "packet bytes from higher layer, vector(packetBytes)"
vector 149 KFatTreeNew.coreSwitch[2].eth[2].mac.queue packetPushed:vector(packetBytes) ETV
attr interpolationmode none
attr title "packet pushed, vector(packetBytes)"
vector 150 KFatTreeNew.coreSwitch[2].eth[2].mac.queue queueLength:vector ETV
attr interpolationmode sample-hold
attr source "count(packetPushed) - count(packetPopped) - count(packetRemoved) - count(packetDropped)"
attr title "queue length, vector"
vector 151 KFatTreeNew.coreSwitch[2].eth[2].mac.queue packetPopped:vector(packetBytes) ETV
attr interpolationmode none
attr title "packet popped, vector(packetBytes)"
vector 152 KFatTreeNew.coreSwitch[2].eth[2].mac.queue queueingTime:vector ETV
attr interpolationmode none
attr source queueingTime(packetPopped)
attr title "queueing times, vector"
attr unit s
vector 153 KFatTreeNew.coreSwitch[2].eth[3].mac packetReceivedFromUpper:vector(packetBytes) ETV
attr interpolationmode none
attr source packetReceivedFromUpper
attr title "packet bytes from higher layer, vector(packetBytes)"
vector 154 KFatTreeNew.coreSwitch[2].eth[3].mac.queue packetPushed:vector(packetBytes) ETV
attr interpolationmode none
attr title "packet pushed, vector(packetBytes)"
vector 155 KFatTreeNew.coreSwitch[2].eth[3].mac.queue queueLength:vector ETV
attr interpolationmode sample-hold
attr source "count(packetPushed) - count(packetPopped) - count(packetRemoved) - count(packetDropped)"
attr title "queue length, vector"
vector 156 KFatTreeNew.coreSwitch[2].eth[3].mac.queue packetPopped:vector(packetBytes) ETV
attr interpolationmode none
attr title "packet popped, vector(packetBytes)"
vector 157 KFatTreeNew.coreSwitch[2].eth[3].mac.queue queueingTime:vector ETV
attr interpolationmode none
attr source queueingTime(packetPopped)
attr title "queueing times, vector"
attr unit s
vector 158 KFatTreeNew.coreSwitch[3].eth[0].mac packetReceivedFromUpper:vector(packetBytes) ETV
attr interpolationmode none
attr source packetReceivedFromUpper
attr title "packet bytes from higher layer, vector(packetBytes)"
vector 159 KFatTreeNew.coreSwitch[3].eth[0].mac.queue packetPushed:vector(packetBytes) ETV
attr interpolationmode none
attr title "packet pushed, vector(packetBytes)"
vector 160 KFatTreeNew.coreSwitch[3].eth[0].mac.queue queueLength:vector ETV
attr interpolationmode sample-hold
attr source "count(packetPushed) - count(packetPopped) - count(packetRemoved) - count(packetDropped)"
attr title "queue length, vector"
vector 161 KFatTreeNew.coreSwitch[3].eth[0].mac.queue packetPopped:vector(packetBytes) ETV
attr interpolationmode none
attr title "packet popped, vector(packetBytes)"
vector 162 KFatTreeNew.coreSwitch[3].eth[0].mac.queue queueingTime:vector ETV
attr interpolationmode none
attr source queueingTime(packetPopped)
attr title "queueing times, vector"
attr unit s
vector 163 KFatTreeNew.coreSwitch[3].eth[1].mac packetReceivedFromUpper:vector(packetBytes) ETV
attr interpolationmode none
attr source packetReceivedFromUpper
attr title "packet bytes from higher layer, vector(packetBytes)"
vector 164 KFatTreeNew.coreSwitch[3].eth[1].mac.queue packetPushed:vector(packetBytes) ETV
attr interpolationmode none
attr title "packet pushed, vector(packetBytes)"
vector 165 KFatTreeNew.coreSwitch[3].eth[1].mac.queue queueLength:vector ETV
attr interpolationmode sample-hold
attr source "count(packetPushed) - count(packetPopped) - count(packetRemoved) - count(packetDropped)"
attr title "queue length, vector"
vector 166 KFatTreeNew.coreSwitch[3].eth[1].mac.queue packetPopped:vector(packetBytes) ETV
attr interpolationmode none
attr title "packet popped, vector(packetBytes)"
vector 167 KFatTreeNew.coreSwitch[3].eth[1].mac.queue queueingTime:vector ETV
attr interpolationmode none
attr source queueingTime(packetPopped)
attr title "queueing times, vector"
attr unit s
vector 168 KFatTreeNew.coreSwitch[3].eth[2].mac packetReceivedFromUpper:vector(packetBytes) ETV
attr interpolationmode none
attr source packetReceivedFromUpper
attr title "packet bytes from higher layer, vector(packetBytes)"
vector 169 KFatTreeNew.coreSwitch[3].eth[2].mac.queue packetPushed:vector(packetBytes) ETV
attr interpolationmode none
attr title "packet pushed, vector(packetBytes)"
vector 170 KFatTreeNew.coreSwitch[3].eth[2].mac.queue queueLength:vector ETV
attr interpolationmode sample-hold
attr source "count(packetPushed) - count(packetPopped) - count(packetRemoved) - count(packetDropped)"
attr title "queue length, vector"
vector 171 KFatTreeNew.coreSwitch[3].eth[2].mac.queue packetPopped:vector(packetBytes) ETV
attr interpolationmode none
attr title "packet popped, vector(packetBytes)"
vector 172 KFatTreeNew.coreSwitch[3].eth[2].mac.queue queueingTime:vector ETV
attr interpolationmode none
attr source queueingTime(packetPopped)
attr title "queueing times, vector"
attr unit s
vector 173 KFatTreeNew.coreSwitch[3].eth[3].mac packetReceivedFromUpper:vector(packetBytes) ETV
attr interpolationmode none
attr source packetReceivedFromUpper
attr title "packet bytes from higher layer, vector(packetBytes)"
vector 174 KFatTreeNew.coreSwitch[3].eth[3].mac.queue packetPushed:vector(packetBytes) ETV
attr interpolationmode none
attr title "packet pushed, vector(packetBytes)"
vector 175 KFatTreeNew.coreSwitch[3].eth[3].mac.queue queueLength:vector ETV
attr interpolationmode sample-hold
attr source "count(packetPushed) - count(packetPopped) - count(packetRemoved) - count(packetDropped)"
attr title "queue length, vector"
vector 176 KFatTreeNew.coreSwitch[3].eth[3].mac.queue packetPopped:vector(packetBytes) ETV
attr interpolationmode none
attr title "packet popped, vector(packetBytes)"
vector 177 KFatTreeNew.coreSwitch[3].eth[3].mac.queue queueingTime:vector ETV
attr interpolationmode none
attr source queueingTime(packetPopped)
attr title "queueing times, vector"
attr unit s
vector 178 KFatTreeNew.pod[0].aggregateSwitch[0].eth[0].mac packetReceivedFromUpper:vector(packetBytes) ETV
attr interpolationmode none
attr source packetReceivedFromUpper
attr title "packet bytes from higher layer, vector(packetBytes)"
vector 179 KFatTreeNew.pod[0].aggregateSwitch[0].eth[0].mac.queue packetPushed:vector(packetBytes) ETV
attr interpolationmode none
attr title "packet pushed, vector(packetBytes)"
vector 180 KFatTreeNew.pod[0].aggregateSwitch[0].eth[0].mac.queue queueLength:vector ETV
attr interpolationmode sample-hold
attr source "count(packetPushed) - count(packetPopped) - count(packetRemoved) - count(packetDropped)"
attr title "queue length, vector"
vector 181 KFatTreeNew.pod[0].aggregateSwitch[0].eth[0].mac.queue packetPopped:vector(packetBytes) ETV
attr interpolationmode none
attr title "packet popped, vector(packetBytes)"
vector 182 KFatTreeNew.pod[0].aggregateSwitch[0].eth[0].mac.queue queueingTime:vector ETV
attr interpolationmode none
attr source queueingTime(packetPopped)
attr title "queueing times, vector"
attr unit s
vector 183 KFatTreeNew.pod[0].aggregateSwitch[0].eth[1].mac packetReceivedFromUpper:vector(packetBytes) ETV
attr interpolationmode none
attr source packetReceivedFromUpper
attr title "packet bytes from higher layer, vector(packetBytes)"
vector 184 KFatTreeNew.pod[0].aggregateSwitch[0].eth[1].mac.queue packetPushed:vector(packetBytes) ETV
attr interpolationmode none
attr title "packet pushed, vector(packetBytes)"
vector 185 KFatTreeNew.pod[0].aggregateSwitch[0].eth[1].mac.queue queueLength:vector ETV
attr interpolationmode sample-hold
attr source "count(packetPushed) - count(packetPopped) - count(packetRemoved) - count(packetDropped)"
attr title "queue length, vector"
vector 186 KFatTreeNew.pod[0].aggregateSwitch[0].eth[1].mac.queue packetPopped:vector(packetBytes) ETV
attr interpolationmode none
attr title "packet popped, vector(packetBytes)"
vector 187 KFatTreeNew.pod[0].aggregateSwitch[0].eth[1].mac.queue queueingTime:vector ETV
attr interpolationmode none
attr source queueingTime(packetPopped)
attr title "queueing times, vector"
attr unit s
vector 188 KFatTreeNew.pod[0].aggregateSwitch[0].eth[2].mac packetReceivedFromUpper:vector(packetBytes) ETV
attr interpolationmode none
attr source packetReceivedFromUpper
attr title "packet bytes from higher layer, vector(packetBytes)"
vector 189 KFatTreeNew.pod[0].aggregateSwitch[0].eth[2].mac.queue packetPushed:vector(packetBytes) ETV
attr interpolationmode none
attr title "packet pushed, vector(packetBytes)"
vector 190 KFatTreeNew.pod[0].aggregateSwitch[0].eth[2].mac.queue queueLength:vector ETV
attr interpolationmode sample-hold
attr source "count(packetPushed) - count(packetPopped) - count(packetRemoved) - count(packetDropped)"
attr title "queue length, vector"
vector 191 KFatTreeNew.pod[0].aggregateSwitch[0].eth[2].mac.queue packetPopped:vector(packetBytes) ETV
attr interpolationmode none
attr title "packet popped, vector(packetBytes)"
vector 192 KFatTreeNew.pod[0].aggregateSwitch[0].eth[2].mac.queue queueingTime:vector ETV
attr interpolationmode none
attr source queueingTime(packetPopped)
attr title "queueing times, vector"
attr unit s
vector 193 KFatTreeNew.pod[0].aggregateSwitch[0].eth[3].mac packetReceivedFromUpper:vector(packetBytes) ETV
attr interpolationmode none
attr source packetReceivedFromUpper
attr title "packet bytes from higher layer, vector(packetBytes)"
vector 194 KFatTreeNew.pod[0].aggregateSwitch[0].eth[3].mac.queue packetPushed:vector(packetBytes) ETV
attr interpolationmode none
attr title "packet pushed, vector(packetBytes)"
vector 195 KFatTreeNew.pod[0].aggregateSwitch[0].eth[3].mac.queue queueLength:vector ETV
attr interpolationmode sample-hold
attr source "count(packetPushed) - count(packetPopped) - count(packetRemoved) - count(packetDropped)"
attr title "queue length, vector"
vector 196 KFatTreeNew.pod[0].aggregateSwitch[0].eth[3].mac.queue packetPopped:vector(packetBytes) ETV
attr interpolationmode none
attr title "packet popped, vector(packetBytes)"
vector 197 KFatTreeNew.pod[0].aggregateSwitch[0].eth[3].mac.queue queueingTime:vector ETV
attr interpolationmode none
attr source queueingTime(packetPopped)
attr title "queueing times, vector"
attr unit s
vector 198 KFatTreeNew.pod[0].aggregateSwitch[1].eth[0].mac packetReceivedFromUpper:vector(packetBytes) ETV
attr interpolationmode none
attr source packetReceivedFromUpper
attr title "packet bytes from higher layer, vector(packetBytes)"
vector 199 KFatTreeNew.pod[0].aggregateSwitch[1].eth[0].mac.queue packetPushed:vector(packetBytes) ETV
attr interpolationmode none
attr title "packet pushed, vector(packetBytes)"
vector 200 KFatTreeNew.pod[0].aggregateSwitch[1].eth[0].mac.queue queueLength:vector ETV
attr interpolationmode sample-hold
attr source "count(packetPushed) - count(packetPopped) - count(packetRemoved) - count(packetDropped)"
attr title "queue length, vector"
vector 201 KFatTreeNew.pod[0].aggregateSwitch[1].eth[0].mac.queue packetPopped:vector(packetBytes) ETV
attr interpolationmode none
attr title "packet popped, vector(packetBytes)"
vector 202 KFatTreeNew.pod[0].aggregateSwitch[1].eth[0].mac.queue queueingTime:vector ETV
attr interpolationmode none
attr source queueingTime(packetPopped)
attr title "queueing times, vector"
attr unit s
vector 203 KFatTreeNew.pod[0].aggregateSwitch[1].eth[1].mac packetReceivedFromUpper:vector(packetBytes) ETV
attr interpolationmode none
attr source packetReceivedFromUpper
attr title "packet bytes from higher layer, vector(packetBytes)"
vector 204 KFatTreeNew.pod[0].aggregateSwitch[1].eth[1].mac.queue packetPushed:vector(packetBytes) ETV
attr interpolationmode none
attr title "packet pushed, vector(packetBytes)"
vector 205 KFatTreeNew.pod[0].aggregateSwitch[1].eth[1].mac.queue queueLength:vector ETV
attr interpolationmode sample-hold
attr source "count(packetPushed) - count(packetPopped) - count(packetRemoved) - count(packetDropped)"
attr title "queue length, vector"
vector 206 KFatTreeNew.pod[0].aggregateSwitch[1].eth[1].mac.queue packetPopped:vector(packetBytes) ETV
attr interpolationmode none
attr title "packet popped, vector(packetBytes)"
vector 207 KFatTreeNew.pod[0].aggregateSwitch[1].eth[1].mac.queue queueingTime:vector ETV
attr interpolationmode none
attr source queueingTime(packetPopped)
attr title "queueing times, vector"
attr unit s
vector 208 KFatTreeNew.pod[0].aggregateSwitch[1].eth[2].mac packetReceivedFromUpper:vector(packetBytes) ETV
attr interpolationmode none
attr source packetReceivedFromUpper
attr title "packet bytes from higher layer, vector(packetBytes)"
vector 209 KFatTreeNew.pod[0].aggregateSwitch[1].eth[2].mac.queue packetPushed:vector(packetBytes) ETV
attr interpolationmode none
attr title "packet pushed, vector(packetBytes)"
vector 210 KFatTreeNew.pod[0].aggregateSwitch[1].eth[2].mac.queue queueLength:vector ETV
attr interpolationmode sample-hold
attr source "count(packetPushed) - count(packetPopped) - count(packetRemoved) - count(packetDropped)"
attr title "queue length, vector"
vector 211 KFatTreeNew.pod[0].aggregateSwitch[1].eth[2].mac.queue packetPopped:vector(packetBytes) ETV
attr interpolationmode none
attr title "packet popped, vector(packetBytes)"
vector 212 KFatTreeNew.pod[0].aggregateSwitch[1].eth[2].mac.queue queueingTime:vector ETV
attr interpolationmode none
attr source queueingTime(packetPopped)
attr title "queueing times, vector"
attr unit s
vector 213 KFatTreeNew.pod[0].aggregateSwitch[1].eth[3].mac packetReceivedFromUpper:vector(packetBytes) ETV
attr interpolationmode none
attr source packetReceivedFromUpper
attr title "packet bytes from higher layer, vector(packetBytes)"
vector 214 KFatTreeNew.pod[0].aggregateSwitch[1].eth[3].mac.queue packetPushed:vector(packetBytes) ETV
attr interpolationmode none
attr title "packet pushed, vector(packetBytes)"
vector 215 KFatTreeNew.pod[0].aggregateSwitch[1].eth[3].mac.queue queueLength:vector ETV
attr interpolationmode sample-hold
attr source "count(packetPushed) - count(packetPopped) - count(packetRemoved) - count(packetDropped)"
attr title "queue length, vector"
vector 216 KFatTreeNew.pod[0].aggregateSwitch[1].eth[3].mac.queue packetPopped:vector(packetBytes) ETV
attr interpolationmode none
attr title "packet popped, vector(packetBytes)"
vector 217 KFatTreeNew.pod[0].aggregateSwitch[1].eth[3].mac.queue queueingTime:vector ETV
attr interpolationmode none
attr source queueingTime(packetPopped)
attr title "queueing times, vector"
attr unit s
vector 218 KFatTreeNew.pod[0].edgeSwitch[0].eth[0].mac packetReceivedFromUpper:vector(packetBytes) ETV
attr interpolationmode none
attr source packetReceivedFromUpper
attr title "packet bytes from higher layer, vector(packetBytes)"
vector 219 KFatTreeNew.pod[0].edgeSwitch[0].eth[0].mac.queue packetPushed:vector(packetBytes) ETV
attr interpolationmode none
attr title "packet pushed, vector(packetBytes)"
vector 220 KFatTreeNew.pod[0].edgeSwitch[0].eth[0].mac.queue queueLength:vector ETV
attr interpolationmode sample-hold
attr source "count(packetPushed) - count(packetPopped) - count(packetRemoved) - count(packetDropped)"
attr title "queue length, vector"
vector 221 KFatTreeNew.pod[0].edgeSwitch[0].eth[0].mac.queue packetPopped:vector(packetBytes) ETV
attr interpolationmode none
attr title "packet popped, vector(packetBytes)"
vector 222 KFatTreeNew.pod[0].edgeSwitch[0].eth[0].mac.queue queueingTime:vector ETV
attr interpolationmode none
attr source queueingTime(packetPopped)
attr title "queueing times, vector"
attr unit s
vector 223 KFatTreeNew.pod[0].edgeSwitch[0].eth[1].mac packetReceivedFromUpper:vector(packetBytes) ETV
attr interpolationmode none
attr source packetReceivedFromUpper
attr title "packet bytes from higher layer, vector(packetBytes)"
vector 224 KFatTreeNew.pod[0].edgeSwitch[0].eth[1].mac.queue packetPushed:vector(packetBytes) ETV
attr interpolationmode none
attr title "packet pushed, vector(packetBytes)"
vector 225 KFatTreeNew.pod[0].edgeSwitch[0].eth[1].mac.queue queueLength:vector ETV
attr interpolationmode sample-hold
attr source "count(packetPushed) - count(packetPopped) - count(packetRemoved) - count(packetDropped)"
attr title "queue length, vector"
vector 226 KFatTreeNew.pod[0].edgeSwitch[0].eth[1].mac.queue packetPopped:vector(packetBytes) ETV
attr interpolationmode none
attr title "packet popped, vector(packetBytes)"
vector 227 KFatTreeNew.pod[0].edgeSwitch[0].eth[1].mac.queue queueingTime:vector ETV
attr interpolationmode none
attr source queueingTime(packetPopped)
attr title "queueing times, vector"
attr unit s
vector 228 KFatTreeNew.pod[0].edgeSwitch[0].eth[2].mac packetReceivedFromUpper:vector(packetBytes) ETV
attr interpolationmode none
attr source packetReceivedFromUpper
attr title "packet bytes from higher layer, vector(packetBytes)"
vector 229 KFatTreeNew.pod[0].edgeSwitch[0].eth[2].mac.queue packetPushed:vector(packetBytes) ETV
attr interpolationmode none
attr title "packet pushed, vector(packetBytes)"
vector 230 KFatTreeNew.pod[0].edgeSwitch[0].eth[2].mac.queue queueLength:vector ETV
attr interpolationmode sample-hold
attr source "count(packetPushed) - count(packetPopped) - count(packetRemoved) - count(packetDropped)"
attr title "queue length, vector"
vector 231 KFatTreeNew.pod[0].edgeSwitch[0].eth[2].mac.queue packetPopped:vector(packetBytes) ETV
attr interpolationmode none
attr title "packet popped, vector(packetBytes)"
vector 232 KFatTreeNew.pod[0].edgeSwitch[0].eth[2].mac.queue queueingTime:vector ETV
attr interpolationmode none
attr source queueingTime(packetPopped)
attr title "queueing times, vector"
attr unit s
vector 233 KFatTreeNew.pod[0].edgeSwitch[0].eth[3].mac packetReceivedFromUpper:vector(packetBytes) ETV
attr interpolationmode none
attr source packetReceivedFromUpper
attr title "packet bytes from higher layer, vector(packetBytes)"
vector 234 KFatTreeNew.pod[0].edgeSwitch[0].eth[3].mac.queue packetPushed:vector(packetBytes) ETV
attr interpolationmode none
attr title "packet pushed, vector(packetBytes)"
vector 235 KFatTreeNew.pod[0].edgeSwitch[0].eth[3].mac.queue queueLength:vector ETV
attr interpolationmode sample-hold
attr source "count(packetPushed) - count(packetPopped) - count(packetRemoved) - count(packetDropped)"
attr title "queue length, vector"
vector 236 KFatTreeNew.pod[0].edgeSwitch[0].eth[3].mac.queue packetPopped:vector(packetBytes) ETV
attr interpolationmode none
attr title "packet popped, vector(packetBytes)"
vector 237 KFatTreeNew.pod[0].edgeSwitch[0].eth[3].mac.queue queueingTime:vector ETV
attr interpolationmode none
attr source queueingTime(packetPopped)
attr title "queueing times, vector"
attr unit s
vector 238 KFatTreeNew.pod[0].edgeSwitch[1].eth[0].mac packetReceivedFromUpper:vector(packetBytes) ETV
attr interpolationmode none
attr source packetReceivedFromUpper
attr title "packet bytes from higher layer, vector(packetBytes)"
vector 239 KFatTreeNew.pod[0].edgeSwitch[1].eth[0].mac.queue packetPushed:vector(packetBytes) ETV
attr interpolationmode none
attr title "packet pushed, vector(packetBytes)"
vector 240 KFatTreeNew.pod[0].edgeSwitch[1].eth[0].mac.queue queueLength:vector ETV
attr interpolationmode sample-hold
attr source "count(packetPushed) - count(packetPopped) - count(packetRemoved) - count(packetDropped)"
attr title "queue length, vector"
vector 241 KFatTreeNew.pod[0].edgeSwitch[1].eth[0].mac.queue packetPopped:vector(packetBytes) ETV
attr interpolationmode none
attr title "packet popped, vector(packetBytes)"
vector 242 KFatTreeNew.pod[0].edgeSwitch[1].eth[0].mac.queue queueingTime:vector ETV
attr interpolationmode none
attr source queueingTime(packetPopped)
attr title "queueing times, vector"
attr unit s
vector 243 KFatTreeNew.pod[0].edgeSwitch[1].eth[1].mac packetReceivedFromUpper:vector(packetBytes) ETV
attr interpolationmode none
attr source packetReceivedFromUpper
attr title "packet bytes from higher layer, vector(packetBytes)"
vector 244 KFatTreeNew.pod[0].edgeSwitch[1].eth[1].mac.queue packetPushed:vector(packetBytes) ETV
attr interpolationmode none
attr title "packet pushed, vector(packetBytes)"
vector 245 KFatTreeNew.pod[0].edgeSwitch[1].eth[1].mac.queue queueLength:vector ETV
attr interpolationmode sample-hold
attr source "count(packetPushed) - count(packetPopped) - count(packetRemoved) - count(packetDropped)"
attr title "queue length, vector"
vector 246 KFatTreeNew.pod[0].edgeSwitch[1].eth[1].mac.queue packetPopped:vector(packetBytes) ETV
attr interpolationmode none
attr title "packet popped, vector(packetBytes)"
vector 247 KFatTreeNew.pod[0].edgeSwitch[1].eth[1].mac.queue queueingTime:vector ETV
attr interpolationmode none
attr source queueingTime(packetPopped)
attr title "queueing times, vector"
attr unit s
vector 248 KFatTreeNew.pod[0].edgeSwitch[1].eth[2].mac packetReceivedFromUpper:vector(packetBytes) ETV
attr interpolationmode none
attr source packetReceivedFromUpper
attr title "packet bytes from higher layer, vector(packetBytes)"
vector 249 KFatTreeNew.pod[0].edgeSwitch[1].eth[2].mac.queue packetPushed:vector(packetBytes) ETV
attr interpolationmode none
attr title "packet pushed, vector(packetBytes)"
vector 250 KFatTreeNew.pod[0].edgeSwitch[1].eth[2].mac.queue queueLength:vector ETV
attr interpolationmode sample-hold
attr source "count(packetPushed) - count(packetPopped) - count(packetRemoved) - count(packetDropped)"
attr title "queue length, vector"
vector 251 KFatTreeNew.pod[0].edgeSwitch[1].eth[2].mac.queue packetPopped:vector(packetBytes) ETV
attr interpolationmode none
attr title "packet popped, vector(packetBytes)"
vector 252 KFatTreeNew.pod[0].edgeSwitch[1].eth[2].mac.queue queueingTime:vector ETV
attr interpolationmode none
attr source queueingTime(packetPopped)
attr title "queueing times, vector"
attr unit s
vector 253 KFatTreeNew.pod[0].edgeSwitch[1].eth[3].mac packetReceivedFromUpper:vector(packetBytes) ETV
attr interpolationmode none
attr source packetReceivedFromUpper
attr title "packet bytes from higher layer, vector(packetBytes)"
vector 254 KFatTreeNew.pod[0].edgeSwitch[1].eth[3].mac.queue packetPushed:vector(packetBytes) ETV
attr interpolationmode none
attr title "packet pushed, vector(packetBytes)"
vector 255 KFatTreeNew.pod[0].edgeSwitch[1].eth[3].mac.queue queueLength:vector ETV
attr interpolationmode sample-hold
attr source "count(packetPushed) - count(packetPopped) - count(packetRemoved) - count(packetDropped)"
attr title "queue length, vector"
vector 256 KFatTreeNew.pod[0].edgeSwitch[1].eth[3].mac.queue packetPopped:vector(packetBytes) ETV
attr interpolationmode none
attr title "packet popped, vector(packetBytes)"
vector 257 KFatTreeNew.pod[0].edgeSwitch[1].eth[3].mac.queue queueingTime:vector ETV
attr interpolationmode none
attr source queueingTime(packetPopped)
attr title "queueing times, vector"
attr unit s
vector 258 KFatTreeNew.pod[1].aggregateSwitch[0].eth[0].mac packetReceivedFromUpper:vector(packetBytes) ETV
attr interpolationmode none
attr source packetReceivedFromUpper
attr title "packet bytes from higher layer, vector(packetBytes)"
vector 259 KFatTreeNew.pod[1].aggregateSwitch[0].eth[0].mac.queue packetPushed:vector(packetBytes) ETV
attr interpolationmode none
attr title "packet pushed, vector(packetBytes)"
vector 260 KFatTreeNew.pod[1].aggregateSwitch[0].eth[0].mac.queue queueLength:vector ETV
attr interpolationmode sample-hold
attr source "count(packetPushed) - count(packetPopped) - count(packetRemoved) - count(packetDropped)"
attr title "queue length, vector"
vector 261 KFatTreeNew.pod[1].aggregateSwitch[0].eth[0].mac.queue packetPopped:vector(packetBytes) ETV
attr interpolationmode none
attr title "packet popped, vector(packetBytes)"
vector 262 KFatTreeNew.pod[1].aggregateSwitch[0].eth[0].mac.queue queueingTime:vector ETV
attr interpolationmode none
attr source queueingTime(packetPopped)
attr title "queueing times, vector"
attr unit s
vector 263 KFatTreeNew.pod[1].aggregateSwitch[0].eth[1].mac packetReceivedFromUpper:vector(packetBytes) ETV
attr interpolationmode none
attr source packetReceivedFromUpper
attr title "packet bytes from higher layer, vector(packetBytes)"
vector 264 KFatTreeNew.pod[1].aggregateSwitch[0].eth[1].mac.queue packetPushed:vector(packetBytes) ETV
attr interpolationmode none
attr title "packet pushed, vector(packetBytes)"
vector 265 KFatTreeNew.pod[1].aggregateSwitch[0].eth[1].mac.queue queueLength:vector ETV
attr interpolationmode sample-hold
attr source "count(packetPushed) - count(packetPopped) - count(packetRemoved) - count(packetDropped)"
attr title "queue length, vector"
vector 266 KFatTreeNew.pod[1].aggregateSwitch[0].eth[1].mac.queue packetPopped:vector(packetBytes) ETV
attr interpolationmode none
attr title "packet popped, vector(packetBytes)"
vector 267 KFatTreeNew.pod[1].aggregateSwitch[0].eth[1].mac.queue queueingTime:vector ETV
attr interpolationmode none
attr source queueingTime(packetPopped)
attr title "queueing times, vector"
attr unit s
vector 268 KFatTreeNew.pod[1].aggregateSwitch[0].eth[2].mac packetReceivedFromUpper:vector(packetBytes) ETV
attr interpolationmode none
attr source packetReceivedFromUpper
attr title "packet bytes from higher layer, vector(packetBytes)"
vector 269 KFatTreeNew.pod[1].aggregateSwitch[0].eth[2].mac.queue packetPushed:vector(packetBytes) ETV
attr interpolationmode none
attr title "packet pushed, vector(packetBytes)"
vector 270 KFatTreeNew.pod[1].aggregateSwitch[0].eth[2].mac.queue queueLength:vector ETV
attr interpolationmode sample-hold
attr source "count(packetPushed) - count(packetPopped) - count(packetRemoved) - count(packetDropped)"
attr title "queue length, vector"
vector 271 KFatTreeNew.pod[1].aggregateSwitch[0].eth[2].mac.queue packetPopped:vector(packetBytes) ETV
attr interpolationmode none
attr title "packet popped, vector(packetBytes)"
vector 272 KFatTreeNew.pod[1].aggregateSwitch[0].eth[2].mac.queue queueingTime:vector ETV
attr interpolationmode none
attr source queueingTime(packetPopped)
attr title "queueing times, vector"
attr unit s
vector 273 KFatTreeNew.pod[1].aggregateSwitch[0].eth[3].mac packetReceivedFromUpper:vector(packetBytes) ETV
attr interpolationmode none
attr source packetReceivedFromUpper
attr title "packet bytes from higher layer, vector(packetBytes)"
vector 274 KFatTreeNew.pod[1].aggregateSwitch[0].eth[3].mac.queue packetPushed:vector(packetBytes) ETV
attr interpolationmode none
attr title "packet pushed, vector(packetBytes)"
vector 275 KFatTreeNew.pod[1].aggregateSwitch[0].eth[3].mac.queue queueLength:vector ETV
attr interpolationmode sample-hold
attr source "count(packetPushed) - count(packetPopped) - count(packetRemoved) - count(packetDropped)"
attr title "queue length, vector"
vector 276 KFatTreeNew.pod[1].aggregateSwitch[0].eth[3].mac.queue packetPopped:vector(packetBytes) ETV
attr interpolationmode none
attr title "packet popped, vector(packetBytes)"
vector 277 KFatTreeNew.pod[1].aggregateSwitch[0].eth[3].mac.queue queueingTime:vector ETV
attr interpolationmode none
attr source queueingTime(packetPopped)
attr title "queueing times, vector"
attr unit s
vector 278 KFatTreeNew.pod[1].aggregateSwitch[1].eth[0].mac packetReceivedFromUpper:vector(packetBytes) ETV
attr interpolationmode none
attr source packetReceivedFromUpper
attr title "packet bytes from higher layer, vector(packetBytes)"
vector 279 KFatTreeNew.pod[1].aggregateSwitch[1].eth[0].mac.queue packetPushed:vector(packetBytes) ETV
attr interpolationmode none
attr title "packet pushed, vector(packetBytes)"
vector 280 KFatTreeNew.pod[1].aggregateSwitch[1].eth[0].mac.queue queueLength:vector ETV
attr interpolationmode sample-hold
attr source "count(packetPushed) - count(packetPopped) - count(packetRemoved) - count(packetDropped)"
attr title "queue length, vector"
vector 281 KFatTreeNew.pod[1].aggregateSwitch[1].eth[0].mac.queue packetPopped:vector(packetBytes) ETV
attr interpolationmode none
attr title "packet popped, vector(packetBytes)"
vector 282 KFatTreeNew.pod[1].aggregateSwitch[1].eth[0].mac.queue queueingTime:vector ETV
attr interpolationmode none
attr source queueingTime(packetPopped)
attr title "queueing times, vector"
attr unit s
vector 283 KFatTreeNew.pod[1].aggregateSwitch[1].eth[1].mac packetReceivedFromUpper:vector(packetBytes) ETV
attr interpolationmode none
attr source packetReceivedFromUpper
attr title "packet bytes from higher layer, vector(packetBytes)"
vector 284 KFatTreeNew.pod[1].aggregateSwitch[1].eth[1].mac.queue packetPushed:vector(packetBytes) ETV
attr interpolationmode none
attr title "packet pushed, vector(packetBytes)"
vector 285 KFatTreeNew.pod[1].aggregateSwitch[1].eth[1].mac.queue queueLength:vector ETV
attr interpolationmode sample-hold
attr source "count(packetPushed) - count(packetPopped) - count(packetRemoved) - count(packetDropped)"
attr title "queue length, vector"
vector 286 KFatTreeNew.pod[1].aggregateSwitch[1].eth[1].mac.queue packetPopped:vector(packetBytes) ETV
attr interpolationmode none
attr title "packet popped, vector(packetBytes)"
vector 287 KFatTreeNew.pod[1].aggregateSwitch[1].eth[1].mac.queue queueingTime:vector ETV
attr interpolationmode none
attr source queueingTime(packetPopped)
attr title "queueing times, vector"
attr unit s
vector 288 KFatTreeNew.pod[1].aggregateSwitch[1].eth[2].mac packetReceivedFromUpper:vector(packetBytes) ETV
attr interpolationmode none
attr source packetReceivedFromUpper
attr title "packet bytes from higher layer, vector(packetBytes)"
vector 289 KFatTreeNew.pod[1].aggregateSwitch[1].eth[2].mac.queue packetPushed:vector(packetBytes) ETV
attr interpolationmode none
attr title "packet pushed, vector(packetBytes)"
vector 290 KFatTreeNew.pod[1].aggregateSwitch[1].eth[2].mac.queue queueLength:vector ETV
attr interpolationmode sample-hold
attr source "count(packetPushed) - count(packetPopped) - count(packetRemoved) - count(packetDropped)"
attr title "queue length, vector"
vector 291 KFatTreeNew.pod[1].aggregateSwitch[1].eth[2].mac.queue packetPopped:vector(packetBytes) ETV
attr interpolationmode none
attr title "packet popped, vector(packetBytes)"
vector 292 KFatTreeNew.pod[1].aggregateSwitch[1].eth[2].mac.queue queueingTime:vector ETV
attr interpolationmode none
attr source queueingTime(packetPopped)
attr title "queueing times, vector"
attr unit s
vector 293 KFatTreeNew.pod[1].aggregateSwitch[1].eth[3].mac packetReceivedFromUpper:vector(packetBytes) ETV
attr interpolationmode none
attr source packetReceivedFromUpper
attr title "packet bytes from higher layer, vector(packetBytes)"
vector 294 KFatTreeNew.pod[1].aggregateSwitch[1].eth[3].mac.queue packetPushed:vector(packetBytes) ETV
attr interpolationmode none
attr title "packet pushed, vector(packetBytes)"
vector 295 KFatTreeNew.pod[1].aggregateSwitch[1].eth[3].mac.queue queueLength:vector ETV
attr interpolationmode sample-hold
attr source "count(packetPushed) - count(packetPopped) - count(packetRemoved) - count(packetDropped)"
attr title "queue length, vector"
vector 296 KFatTreeNew.pod[1].aggregateSwitch[1].eth[3].mac.queue packetPopped:vector(packetBytes) ETV
attr interpolationmode none
attr title "packet popped, vector(packetBytes)"
vector 297 KFatTreeNew.pod[1].aggregateSwitch[1].eth[3].mac.queue queueingTime:vector ETV
attr interpolationmode none
attr source queueingTime(packetPopped)
attr title "queueing times, vector"
attr unit s
vector 298 KFatTreeNew.pod[1].edgeSwitch[0].eth[0].mac packetReceivedFromUpper:vector(packetBytes) ETV
attr interpolationmode none
attr source packetReceivedFromUpper
attr title "packet bytes from higher layer, vector(packetBytes)"
vector 299 KFatTreeNew.pod[1].edgeSwitch[0].eth[0].mac.queue packetPushed:vector(packetBytes) ETV
attr interpolationmode none
attr title "packet pushed, vector(packetBytes)"
vector 300 KFatTreeNew.pod[1].edgeSwitch[0].eth[0].mac.queue queueLength:vector ETV
attr interpolationmode sample-hold
attr source "count(packetPushed) - count(packetPopped) - count(packetRemoved) - count(packetDropped)"
attr title "queue length, vector"
vector 301 KFatTreeNew.pod[1].edgeSwitch[0].eth[0].mac.queue packetPopped:vector(packetBytes) ETV
attr interpolationmode none
attr title "packet popped, vector(packetBytes)"
vector 302 KFatTreeNew.pod[1].edgeSwitch[0].eth[0].mac.queue queueingTime:vector ETV
attr interpolationmode none
attr source queueingTime(packetPopped)
attr title "queueing times, vector"
attr unit s
vector 303 KFatTreeNew.pod[1].edgeSwitch[0].eth[1].mac packetReceivedFromUpper:vector(packetBytes) ETV
attr interpolationmode none
attr source packetReceivedFromUpper
attr title "packet bytes from higher layer, vector(packetBytes)"
vector 304 KFatTreeNew.pod[1].edgeSwitch[0].eth[1].mac.queue packetPushed:vector(packetBytes) ETV
attr interpolationmode none
attr title "packet pushed, vector(packetBytes)"
vector 305 KFatTreeNew.pod[1].edgeSwitch[0].eth[1].mac.queue queueLength:vector ETV
attr interpolationmode sample-hold
attr source "count(packetPushed) - count(packetPopped) - count(packetRemoved) - count(packetDropped)"
attr title "queue length, vector"
vector 306 KFatTreeNew.pod[1].edgeSwitch[0].eth[1].mac.queue packetPopped:vector(packetBytes) ETV
attr interpolationmode none
attr title "packet popped, vector(packetBytes)"
vector 307 KFatTreeNew.pod[1].edgeSwitch[0].eth[1].mac.queue queueingTime:vector ETV
attr interpolationmode none
attr source queueingTime(packetPopped)
attr title "queueing times, vector"
attr unit s
vector 308 KFatTreeNew.pod[1].edgeSwitch[0].eth[2].mac packetReceivedFromUpper:vector(packetBytes) ETV
attr interpolationmode none
attr source packetReceivedFromUpper
attr title "packet bytes from higher layer, vector(packetBytes)"
vector 309 KFatTreeNew.pod[1].edgeSwitch[0].eth[2].mac.queue packetPushed:vector(packetBytes) ETV
attr interpolationmode none
attr title "packet pushed, vector(packetBytes)"
vector 310 KFatTreeNew.pod[1].edgeSwitch[0].eth[2].mac.queue queueLength:vector ETV
attr interpolationmode sample-hold
attr source "count(packetPushed) - count(packetPopped) - count(packetRemoved) - count(packetDropped)"
attr title "queue length, vector"
vector 311 KFatTreeNew.pod[1].edgeSwitch[0].eth[2].mac.queue packetPopped:vector(packetBytes) ETV
attr interpolationmode none
attr title "packet popped, vector(packetBytes)"
vector 312 KFatTreeNew.pod[1].edgeSwitch[0].eth[2].mac.queue queueingTime:vector ETV
attr interpolationmode none
attr source queueingTime(packetPopped)
attr title "queueing times, vector"
attr unit s
vector 313 KFatTreeNew.pod[1].edgeSwitch[0].eth[3].mac packetReceivedFromUpper:vector(packetBytes) ETV
attr interpolationmode none
attr source packetReceivedFromUpper
attr title "packet bytes from higher layer, vector(packetBytes)"
vector 314 KFatTreeNew.pod[1].edgeSwitch[0].eth[3].mac.queue packetPushed:vector(packetBytes) ETV
attr interpolationmode none
attr title "packet pushed, vector(packetBytes)"
vector 315 KFatTreeNew.pod[1].edgeSwitch[0].eth[3].mac.queue queueLength:vector ETV
attr interpolationmode sample-hold
attr source "count(packetPushed) - count(packetPopped) - count(packetRemoved) - count(packetDropped)"
attr title "queue length, vector"
vector 316 KFatTreeNew.pod[1].edgeSwitch[0].eth[3].mac.queue packetPopped:vector(packetBytes) ETV
attr interpolationmode none
attr title "packet popped, vector(packetBytes)"
vector 317 KFatTreeNew.pod[1].edgeSwitch[0].eth[3].mac.queue queueingTime:vector ETV
attr interpolationmode none
attr source queueingTime(packetPopped)
attr title "queueing times, vector"
attr unit s
vector 318 KFatTreeNew.pod[1].edgeSwitch[1].eth[0].mac packetReceivedFromUpper:vector(packetBytes) ETV
attr interpolationmode none
attr source packetReceivedFromUpper
attr title "packet bytes from higher layer, vector(packetBytes)"
vector 319 KFatTreeNew.pod[1].edgeSwitch[1].eth[0].mac.queue packetPushed:vector(packetBytes) ETV
attr interpolationmode none
attr title "packet pushed, vector(packetBytes)"
vector 320 KFatTreeNew.pod[1].edgeSwitch[1].eth[0].mac.queue queueLength:vector ETV
attr interpolationmode sample-hold
attr source "count(packetPushed) - count(packetPopped) - count(packetRemoved) - count(packetDropped)"
attr title "queue length, vector"
vector 321 KFatTreeNew.pod[1].edgeSwitch[1].eth[0].mac.queue packetPopped:vector(packetBytes) ETV
attr interpolationmode none
attr title "packet popped, vector(packetBytes)"
vector 322 KFatTreeNew.pod[1].edgeSwitch[1].eth[0].mac.queue queueingTime:vector ETV
attr interpolationmode none
attr source queueingTime(packetPopped)
attr title "queueing times, vector"
attr unit s
vector 323 KFatTreeNew.pod[1].edgeSwitch[1].eth[1].mac packetReceivedFromUpper:vector(packetBytes) ETV
attr interpolationmode none
attr source packetReceivedFromUpper
attr title "packet bytes from higher layer, vector(packetBytes)"
vector 324 KFatTreeNew.pod[1].edgeSwitch[1].eth[1].mac.queue packetPushed:vector(packetBytes) ETV
attr interpolationmode none
attr title "packet pushed, vector(packetBytes)"
vector 325 KFatTreeNew.pod[1].edgeSwitch[1].eth[1].mac.queue queueLength:vector ETV
attr interpolationmode sample-hold
attr source "count(packetPushed) - count(packetPopped) - count(packetRemoved) - count(packetDropped)"
attr title "queue length, vector"
vector 326 KFatTreeNew.pod[1].edgeSwitch[1].eth[1].mac.queue packetPopped:vector(packetBytes) ETV
attr interpolationmode none
attr title "packet popped, vector(packetBytes)"
vector 327 KFatTreeNew.pod[1].edgeSwitch[1].eth[1].mac.queue queueingTime:vector ETV
attr interpolationmode none
attr source queueingTime(packetPopped)
attr title "queueing times, vector"
attr unit s
vector 328 KFatTreeNew.pod[1].edgeSwitch[1].eth[2].mac packetReceivedFromUpper:vector(packetBytes) ETV
attr interpolationmode none
attr source packetReceivedFromUpper
attr title "packet bytes from higher layer, vector(packetBytes)"
vector 329 KFatTreeNew.pod[1].edgeSwitch[1].eth[2].mac.queue packetPushed:vector(packetBytes) ETV
attr interpolationmode none
attr title "packet pushed, vector(packetBytes)"
vector 330 KFatTreeNew.pod[1].edgeSwitch[1].eth[2].mac.queue queueLength:vector ETV
attr interpolationmode sample-hold
attr source "count(packetPushed) - count(packetPopped) - count(packetRemoved) - count(packetDropped)"
attr title "queue length, vector"
vector 331 KFatTreeNew.pod[1].edgeSwitch[1].eth[2].mac.queue packetPopped:vector(packetBytes) ETV
attr interpolationmode none
attr title "packet popped, vector(packetBytes)"
vector 332 KFatTreeNew.pod[1].edgeSwitch[1].eth[2].mac.queue queueingTime:vector ETV
attr interpolationmode none
attr source queueingTime(packetPopped)
attr title "queueing times, vector"
attr unit s
vector 333 KFatTreeNew.pod[1].edgeSwitch[1].eth[3].mac packetReceivedFromUpper:vector(packetBytes) ETV
attr interpolationmode none
attr source packetReceivedFromUpper
attr title "packet bytes from higher layer, vector(packetBytes)"
vector 334 KFatTreeNew.pod[1].edgeSwitch[1].eth[3].mac.queue packetPushed:vector(packetBytes) ETV
attr interpolationmode none
attr title "packet pushed, vector(packetBytes)"
vector 335 KFatTreeNew.pod[1].edgeSwitch[1].eth[3].mac.queue queueLength:vector ETV
attr interpolationmode sample-hold
attr source "count(packetPushed) - count(packetPopped) - count(packetRemoved) - count(packetDropped)"
attr title "queue length, vector"
vector 336 KFatTreeNew.pod[1].edgeSwitch[1].eth[3].mac.queue packetPopped:vector(packetBytes) ETV
attr interpolationmode none
attr title "packet popped, vector(packetBytes)"
vector 337 KFatTreeNew.pod[1].edgeSwitch[1].eth[3].mac.queue queueingTime:vector ETV
attr interpolationmode none
attr source queueingTime(packetPopped)
attr title "queueing times, vector"
attr unit s
vector 338 KFatTreeNew.pod[2].aggregateSwitch[0].eth[0].mac packetReceivedFromUpper:vector(packetBytes) ETV
attr interpolationmode none
attr source packetReceivedFromUpper
attr title "packet bytes from higher layer, vector(packetBytes)"
vector 339 KFatTreeNew.pod[2].aggregateSwitch[0].eth[0].mac.queue packetPushed:vector(packetBytes) ETV
attr interpolationmode none
attr title "packet pushed, vector(packetBytes)"
vector 340 KFatTreeNew.pod[2].aggregateSwitch[0].eth[0].mac.queue queueLength:vector ETV
attr interpolationmode sample-hold
attr source "count(packetPushed) - count(packetPopped) - count(packetRemoved) - count(packetDropped)"
attr title "queue length, vector"
vector 341 KFatTreeNew.pod[2].aggregateSwitch[0].eth[0].mac.queue packetPopped:vector(packetBytes) ETV
attr interpolationmode none
attr title "packet popped, vector(packetBytes)"
vector 342 KFatTreeNew.pod[2].aggregateSwitch[0].eth[0].mac.queue queueingTime:vector ETV
attr interpolationmode none
attr source queueingTime(packetPopped)
attr title "queueing times, vector"
attr unit s
vector 343 KFatTreeNew.pod[2].aggregateSwitch[0].eth[1].mac packetReceivedFromUpper:vector(packetBytes) ETV
attr interpolationmode none
attr source packetReceivedFromUpper
attr title "packet bytes from higher layer, vector(packetBytes)"
vector 344 KFatTreeNew.pod[2].aggregateSwitch[0].eth[1].mac.queue packetPushed:vector(packetBytes) ETV
attr interpolationmode none
attr title "packet pushed, vector(packetBytes)"
vector 345 KFatTreeNew.pod[2].aggregateSwitch[0].eth[1].mac.queue queueLength:vector ETV
attr interpolationmode sample-hold
attr source "count(packetPushed) - count(packetPopped) - count(packetRemoved) - count(packetDropped)"
attr title "queue length, vector"
vector 346 KFatTreeNew.pod[2].aggregateSwitch[0].eth[1].mac.queue packetPopped:vector(packetBytes) ETV
attr interpolationmode none
attr title "packet popped, vector(packetBytes)"
vector 347 KFatTreeNew.pod[2].aggregateSwitch[0].eth[1].mac.queue queueingTime:vector ETV
attr interpolationmode none
attr source queueingTime(packetPopped)
attr title "queueing times, vector"
attr unit s
vector 348 KFatTreeNew.pod[2].aggregateSwitch[0].eth[2].mac packetReceivedFromUpper:vector(packetBytes) ETV
attr interpolationmode none
attr source packetReceivedFromUpper
attr title "packet bytes from higher layer, vector(packetBytes)"
vector 349 KFatTreeNew.pod[2].aggregateSwitch[0].eth[2].mac.queue packetPushed:vector(packetBytes) ETV
attr interpolationmode none
attr title "packet pushed, vector(packetBytes)"
vector 350 KFatTreeNew.pod[2].aggregateSwitch[0].eth[2].mac.queue queueLength:vector ETV
attr interpolationmode sample-hold
attr source "count(packetPushed) - count(packetPopped) - count(packetRemoved) - count(packetDropped)"
attr title "queue length, vector"
vector 351 KFatTreeNew.pod[2].aggregateSwitch[0].eth[2].mac.queue packetPopped:vector(packetBytes) ETV
attr interpolationmode none
attr title "packet popped, vector(packetBytes)"
vector 352 KFatTreeNew.pod[2].aggregateSwitch[0].eth[2].mac.queue queueingTime:vector ETV
attr interpolationmode none
attr source queueingTime(packetPopped)
attr title "queueing times, vector"
attr unit s
vector 353 KFatTreeNew.pod[2].aggregateSwitch[0].eth[3].mac packetReceivedFromUpper:vector(packetBytes) ETV
attr interpolationmode none
attr source packetReceivedFromUpper
attr title "packet bytes from higher layer, vector(packetBytes)"
vector 354 KFatTreeNew.pod[2].aggregateSwitch[0].eth[3].mac.queue packetPushed:vector(packetBytes) ETV
attr interpolationmode none
attr title "packet pushed, vector(packetBytes)"
vector 355 KFatTreeNew.pod[2].aggregateSwitch[0].eth[3].mac.queue queueLength:vector ETV
attr interpolationmode sample-hold
attr source "count(packetPushed) - count(packetPopped) - count(packetRemoved) - count(packetDropped)"
attr title "queue length, vector"
vector 356 KFatTreeNew.pod[2].aggregateSwitch[0].eth[3].mac.queue packetPopped:vector(packetBytes) ETV
attr interpolationmode none
attr title "packet popped, vector(packetBytes)"
vector 357 KFatTreeNew.pod[2].aggregateSwitch[0].eth[3].mac.queue queueingTime:vector ETV
attr interpolationmode none
attr source queueingTime(packetPopped)
attr title "queueing times, vector"
attr unit s
vector 358 KFatTreeNew.pod[2].aggregateSwitch[1].eth[0].mac packetReceivedFromUpper:vector(packetBytes) ETV
attr interpolationmode none
attr source packetReceivedFromUpper
attr title "packet bytes from higher layer, vector(packetBytes)"
vector 359 KFatTreeNew.pod[2].aggregateSwitch[1].eth[0].mac.queue packetPushed:vector(packetBytes) ETV
attr interpolationmode none
attr title "packet pushed, vector(packetBytes)"
vector 360 KFatTreeNew.pod[2].aggregateSwitch[1].eth[0].mac.queue queueLength:vector ETV
attr interpolationmode sample-hold
attr source "count(packetPushed) - count(packetPopped) - count(packetRemoved) - count(packetDropped)"
attr title "queue length, vector"
vector 361 KFatTreeNew.pod[2].aggregateSwitch[1].eth[0].mac.queue packetPopped:vector(packetBytes) ETV
attr interpolationmode none
attr title "packet popped, vector(packetBytes)"
vector 362 KFatTreeNew.pod[2].aggregateSwitch[1].eth[0].mac.queue queueingTime:vector ETV
attr interpolationmode none
attr source queueingTime(packetPopped)
attr title "queueing times, vector"
attr unit s
vector 363 KFatTreeNew.pod[2].aggregateSwitch[1].eth[1].mac packetReceivedFromUpper:vector(packetBytes) ETV
attr interpolationmode none
attr source packetReceivedFromUpper
attr title "packet bytes from higher layer, vector(packetBytes)"
vector 364 KFatTreeNew.pod[2].aggregateSwitch[1].eth[1].mac.queue packetPushed:vector(packetBytes) ETV
attr interpolationmode none
attr title "packet pushed, vector(packetBytes)"
vector 365 KFatTreeNew.pod[2].aggregateSwitch[1].eth[1].mac.queue queueLength:vector ETV
attr interpolationmode sample-hold
attr source "count(packetPushed) - count(packetPopped) - count(packetRemoved) - count(packetDropped)"
attr title "queue length, vector"
vector 366 KFatTreeNew.pod[2].aggregateSwitch[1].eth[1].mac.queue packetPopped:vector(packetBytes) ETV
attr interpolationmode none
attr title "packet popped, vector(packetBytes)"
vector 367 KFatTreeNew.pod[2].aggregateSwitch[1].eth[1].mac.queue queueingTime:vector ETV
attr interpolationmode none
attr source queueingTime(packetPopped)
attr title "queueing times, vector"
attr unit s
vector 368 KFatTreeNew.pod[2].aggregateSwitch[1].eth[2].mac packetReceivedFromUpper:vector(packetBytes) ETV
attr interpolationmode none
attr source packetReceivedFromUpper
attr title "packet bytes from higher layer, vector(packetBytes)"
vector 369 KFatTreeNew.pod[2].aggregateSwitch[1].eth[2].mac.queue packetPushed:vector(packetBytes) ETV
attr interpolationmode none
attr title "packet pushed, vector(packetBytes)"
vector 370 KFatTreeNew.pod[2].aggregateSwitch[1].eth[2].mac.queue queueLength:vector ETV
attr interpolationmode sample-hold
attr source "count(packetPushed) - count(packetPopped) - count(packetRemoved) - count(packetDropped)"
attr title "queue length, vector"
vector 371 KFatTreeNew.pod[2].aggregateSwitch[1].eth[2].mac.queue packetPopped:vector(packetBytes) ETV
attr interpolationmode none
attr title "packet popped, vector(packetBytes)"
vector 372 KFatTreeNew.pod[2].aggregateSwitch[1].eth[2].mac.queue queueingTime:vector ETV
attr interpolationmode none
attr source queueingTime(packetPopped)
attr title "queueing times, vector"
attr unit s
vector 373 KFatTreeNew.pod[2].aggregateSwitch[1].eth[3].mac packetReceivedFromUpper:vector(packetBytes) ETV
attr interpolationmode none
attr source packetReceivedFromUpper
attr title "packet bytes from higher layer, vector(packetBytes)"
vector 374 KFatTreeNew.pod[2].aggregateSwitch[1].eth[3].mac.queue packetPushed:vector(packetBytes) ETV
attr interpolationmode none
attr title "packet pushed, vector(packetBytes)"
vector 375 KFatTreeNew.pod[2].aggregateSwitch[1].eth[3].mac.queue queueLength:vector ETV
attr interpolationmode sample-hold
attr source "count(packetPushed) - count(packetPopped) - count(packetRemoved) - count(packetDropped)"
attr title "queue length, vector"
vector 376 KFatTreeNew.pod[2].aggregateSwitch[1].eth[3].mac.queue packetPopped:vector(packetBytes) ETV
attr interpolationmode none
attr title "packet popped, vector(packetBytes)"
vector 377 KFatTreeNew.pod[2].aggregateSwitch[1].eth[3].mac.queue queueingTime:vector ETV
attr interpolationmode none
attr source queueingTime(packetPopped)
attr title "queueing times, vector"
attr unit s
vector 378 KFatTreeNew.pod[2].edgeSwitch[0].eth[0].mac packetReceivedFromUpper:vector(packetBytes) ETV
attr interpolationmode none
attr source packetReceivedFromUpper
attr title "packet bytes from higher layer, vector(packetBytes)"
vector 379 KFatTreeNew.pod[2].edgeSwitch[0].eth[0].mac.queue packetPushed:vector(packetBytes) ETV
attr interpolationmode none
attr title "packet pushed, vector(packetBytes)"
vector 380 KFatTreeNew.pod[2].edgeSwitch[0].eth[0].mac.queue queueLength:vector ETV
attr interpolationmode sample-hold
attr source "count(packetPushed) - count(packetPopped) - count(packetRemoved) - count(packetDropped)"
attr title "queue length, vector"
vector 381 KFatTreeNew.pod[2].edgeSwitch[0].eth[0].mac.queue packetPopped:vector(packetBytes) ETV
attr interpolationmode none
attr title "packet popped, vector(packetBytes)"
vector 382 KFatTreeNew.pod[2].edgeSwitch[0].eth[0].mac.queue queueingTime:vector ETV
attr interpolationmode none
attr source queueingTime(packetPopped)
attr title "queueing times, vector"
attr unit s
vector 383 KFatTreeNew.pod[2].edgeSwitch[0].eth[1].mac packetReceivedFromUpper:vector(packetBytes) ETV
attr interpolationmode none
attr source packetReceivedFromUpper
attr title "packet bytes from higher layer, vector(packetBytes)"
vector 384 KFatTreeNew.pod[2].edgeSwitch[0].eth[1].mac.queue packetPushed:vector(packetBytes) ETV
attr interpolationmode none
attr title "packet pushed, vector(packetBytes)"
vector 385 KFatTreeNew.pod[2].edgeSwitch[0].eth[1].mac.queue queueLength:vector ETV
attr interpolationmode sample-hold
attr source "count(packetPushed) - count(packetPopped) - count(packetRemoved) - count(packetDropped)"
[...]
708	209360 25 389 389 0.00000000576 0.00000000576 1 64 64 64 4096
709	209385 25 389 389 0.00000000576 0.00000000576 1 64 64 64 4096
710	209410 25 390 390 0.00000000576 0.00000000576 1 64 64 64 4096
711	209435 25 391 391 0.00000000576 0.00000000576 1 64 64 64 4096
712	209460 25 391 391 0.00000000576 0.00000000576 1 64 64 64 4096
713	209485 25 392 392 0.00000000576 0.00000000576 1 64 64 64 4096
714	209510 25 393 393 0.00000000576 0.00000000576 1 64 64 64 4096
715	209535 25 393 393 0.00000000576 0.00000000576 1 64 64 64 4096
716	209560 25 394 394 0.00000000576 0.00000000576 1 64 64 64 4096
717	209585 25 395 395 0.00000000576 0.00000000576 1 64 64 64 4096
718	209610 25 395 395 0.00000000576 0.00000000576 1 64 64 64 4096
719	209635 25 396 396 0.00000000576 0.00000000576 1 64 64 64 4096
720	209660 25 397 397 0.00000000576 0.00000000576 1 64 64 64 4096
721	209685 25 397 397 0.00000000576 0.00000000576 1 64 64 64 4096
722	209710 25 398 398 0.00000000576 0.00000000576 1 64 64 64 4096
723	209735 25 399 399 0.00000000576 0.00000000576 1 64 64 64 4096
724	209760 25 399 399 0.00000000576 0.00000000576 1 64 64 64 4096
725	209785 25 400 400 0.00000000576 0.00000000576 1 64 64 64 4096
726	209810 25 401 401 0.00000000576 0.00000000576 1 64 64 64 4096
727	209835 25 401 401 0.00000000576 0.00000000576 1 64 64 64 4096
728	209860 25 402 402 0.00000000576 0.00000000576 1 64 64 64 4096
729	209885 25 403 403 0.00000000576 0.00000000576 1 64 64 64 4096
730	209910 25 403 403 0.00000000576 0.00000000576 1 64 64 64 4096
731	209935 25 404 404 0.00000000576 0.00000000576 1 64 64 64 4096
732	209960 25 405 405 0.00000000576 0.00000000576 1 64 64 64 4096
733	209985 25 405 405 0.00000000576 0.00000000576 1 64 64 64 4096
734	210010 25 406 406 0.00000000576 0.00000000576 1 64 64 64 4096
735	210035 25 407 407 0.00000000576 0.00000000576 1 64 64 64 4096
736	210060 25 407 407 0.00000000576 0.00000000576 1 64 64 64 4096
737	210085 25 408 408 0.00000000576 0.00000000576 1 64 64 64 4096
738	210110 25 409 409 0.00000000576 0.00000000576 1 64 64 64 4096
739	210135 25 409 409 0.00000000576 0.00000000576 1 64 64 64 4096
740	210160 25 410 410 0.00000000576 0.00000000576 1 64 64 64 4096
741	210185 25 411 411 0.00000000576 0.00000000576 1 64 64 64 4096
742	210210 25 411 411 0.00000000576 0.00000000576 1 64 64 64 4096
743	210235 25 412 412 0.00000000576 0.00000000576 1 64 64 64 4096
744	210260 25 413 413 0.00000000576 0.00000000576 1 64 64 64 4096
745	210285 25 413 413 0.00000000576 0.00000000576 1 64 64 64 4096
746	210310 25 414 414 0.00000000576 0.00000000576 1 64 64 64 4096
747	210335 25 415 415 0.00000000576 0.00000000576 1 64 64 64 4096
748	210360 25 415 415 0.00000000576 0.00000000576 1 64 64 64 4096
749	210385 25 416 416 0.00000000576 0.00000000576 1 64 64 64 4096
750	210410 25 417 417 0.00000000576 0.00000000576 1 64 64 64 4096
751	210435 25 417 417 0.00000000576 0.00000000576 1 64 64 64 4096
752	210460 25 418 418 0.00000000576 0.00000000576 1 64 64 64 4096
753	210485 25 419 419 0.00000000576 0.00000000576 1 64 64 64 4096
754	210510 25 419 419 0.00000000576 0.00000000576 1 64 64 64 4096
755	210535 25 420 420 0.00000000576 0.00000000576 1 64 64 64 4096
756	210560 25 421 421 0.00000000576 0.00000000576 1 64 64 64 4096
757	210585 25 421 421 0.00000000576 0.00000000576 1 64 64 64 4096
758	210610 25 422 422 0.00000000576 0.00000000576 1 64 64 64 4096
759	210635 25 423 423 0.00000000576 0.00000000576 1 64 64 64 4096
760	210660 25 423 423 0.00000000576 0.00000000576 1 64 64 64 4096
761	210685 25 424 424 0.00000000576 0.00000000576 1 64 64 64 4096
762	210710 25 425 425 0.00000000576 0.00000000576 1 64 64 64 4096
763	210735 25 425 425 0.00000000576 0.00000000576 1 64 64 64 4096
764	210760 25 426 426 0.00000000576 0.00000000576 1 64 64 64 4096
765	210785 25 427 427 0.00000000576 0.00000000576 1 64 64 64 4096
766	210810 25 427 427 0.00000000576 0.00000000576 1 64 64 64 4096
767	210835 25 428 428 0.00000000576 0.00000000576 1 64 64 64 4096
768	210860 25 429 429 0.00000000576 0.00000000576 1 64 64 64 4096
769	210885 25 429 429 0.00000000576 0.00000000576 1 64 64 64 4096
770	210910 25 430 430 0.00000000576 0.00000000576 1 64 64 64 4096
771	210935 25 431 431 0.00000000576 0.00000000576 1 64 64 64 4096
772	210960 25 431 431 0.00000000576 0.00000000576 1 64 64 64 4096
773	210985 25 432 432 0.00000000576 0.00000000576 1 64 64 64 4096
774	211010 25 433 433 0.00000000576 0.00000000576 1 64 64 64 4096
775	211035 25 433 433 0.00000000576 0.00000000576 1 64 64 64 4096
776	211060 25 434 434 0.00000000576 0.00000000576 1 64 64 64 4096
777	211085 25 435 435 0.00000000576 0.00000000576 1 64 64 64 4096
778	211110 25 435 435 0.00000000576 0.00000000576 1 64 64 64 4096
779	211135 25 436 436 0.00000000576 0.00000000576 1 64 64 64 4096
780	211160 25 437 437 0.00000000576 0.00000000576 1 64 64 64 4096
781	211185 25 437 437 0.00000000576 0.00000000576 1 64 64 64 4096
782	211210 25 438 438 0.00000000576 0.00000000576 1 64 64 64 4096
783	211235 25 439 439 0.00000000576 0.00000000576 1 46 46 46 2116
784	211260 25 440 440 0.00000000576 0.00000000576 1 46 46 46 2116
785	211285 25 441 441 0.00000000576 0.00000000576 1 46 46 46 2116
786	211310 25 442 442 0.00000000576 0.00000000576 1 46 46 46 2116
787	211335 25 443 443 0.00000000576 0.00000000576 1 46 46 46 2116
788	211360 25 444 444 0.00000000576 0.00000000576 1 46 46 46 2116
789	211385 25 445 445 0.00000000576 0.00000000576 1 46 46 46 2116
790	211410 25 446 446 0.00000000576 0.00000000576 1 46 46 46 2116
791	211435 25 447 447 0.00000000576 0.00000000576 1 46 46 46 2116
792	211460 25 448 448 0.00000000576 0.00000000576 1 46 46 46 2116
793	211485 25 449 449 0.00000000576 0.00000000576 1 46 46 46 2116
794	211510 25 450 450 0.00000000576 0.00000000576 1 46 46 46 2116
795	211535 25 451 451 0.00000000576 0.00000000576 1 46 46 46 2116
796	211560 25 452 452 0.00000000576 0.00000000576 1 46 46 46 2116
797	211585 25 453 453 0.00000000576 0.00000000576 1 46 46 46 2116
798	211610 25 454 454 0.00000000576 0.00000000576 1 46 46 46 2116
799	211635 25 455 455 0.00000000576 0.00000000576 1 46 46 46 2116
800	211660 25 456 456 0.00000000576 0.00000000576 1 46 46 46 2116
801	211685 25 457 457 0.00000000576 0.00000000576 1 46 46 46 2116
802	211710 25 458 458 0.00000000576 0.00000000576 1 46 46 46 2116
803	211735 25 459 459 0.00000000576 0.00000000576 1 46 46 46 2116
804	211760 25 460 460 0.00000000576 0.00000000576 1 46 46 46 2116
805	211785 25 461 461 0.00000000576 0.00000000576 1 46 46 46 2116
806	211810 25 462 462 0.00000000576 0.00000000576 1 46 46 46 2116
807	211835 25 463 463 0.00000000576 0.00000000576 1 46 46 46 2116
808	211860 25 464 464 0.00000000576 0.00000000576 1 46 46 46 2116
809	211885 25 465 465 0.00000000576 0.00000000576 1 46 46 46 2116
810	211910 25 466 466 0.00000000576 0.00000000576 1 46 46 46 2116
811	211935 25 467 467 0.00000000576 0.00000000576 1 46 46 46 2116
812	211960 25 468 468 0.00000000576 0.00000000576 1 46 46 46 2116
813	211985 25 469 469 0.00000000576 0.00000000576 1 46 46 46 2116
814	212010 25 470 470 0.00000000576 0.00000000576 1 46 46 46 2116
815	212035 25 471 471 0.00000000576 0.00000000576 1 46 46 46 2116
816	212060 25 472 472 0.00000000576 0.00000000576 1 46 46 46 2116
817	212085 25 473 473 0.00000000576 0.00000000576 1 46 46 46 2116
818	212110 25 474 474 0.00000000576 0.00000000576 1 46 46 46 2116
819	212135 25 475 475 0.00000000576 0.00000000576 1 46 46 46 2116
820	212160 25 476 476 0.00000000576 0.00000000576 1 46 46 46 2116
821	212185 25 477 477 0.00000000576 0.00000000576 1 46 46 46 2116
822	212210 25 478 478 0.00000000576 0.00000000576 1 46 46 46 2116
823	212235 25 479 479 0.00000000576 0.00000000576 1 46 46 46 2116
824	212260 25 480 480 0.00000000576 0.00000000576 1 46 46 46 2116
825	212285 25 481 481 0.00000000576 0.00000000576 1 46 46 46 2116
826	212310 25 482 482 0.00000000576 0.00000000576 1 46 46 46 2116
827	212335 25 483 483 0.00000000576 0.00000000576 1 46 46 46 2116
828	212360 25 484 484 0.00000000576 0.00000000576 1 46 46 46 2116
829	212385 25 485 485 0.00000000576 0.00000000576 1 46 46 46 2116
830	212410 25 486 486 0.00000000576 0.00000000576 1 46 46 46 2116
831	212435 25 487 487 0.00000000576 0.00000000576 1 46 46 46 2116
832	212460 25 488 488 0.00000000576 0.00000000576 1 46 46 46 2116
833	212485 25 489 489 0.00000000576 0.00000000576 1 46 46 46 2116
834	212510 25 490 490 0.00000000576 0.00000000576 1 46 46 46 2116
835	212535 25 491 491 0.00000000576 0.00000000576 1 46 46 46 2116
836	212560 25 492 492 0.00000000576 0.00000000576 1 46 46 46 2116
837	212585 25 493 493 0.00000000576 0.00000000576 1 46 46 46 2116
838	212610 25 494 494 0.00000000576 0.00000000576 1 46 46 46 2116
839	212635 25 495 495 0.00000000576 0.00000000576 1 46 46 46 2116
840	212660 25 496 496 0.00000000576 0.00000000576 1 46 46 46 2116
841	212685 25 497 497 0.00000000576 0.00000000576 1 46 46 46 2116
842	212710 25 498 498 0.00000000576 0.00000000576 1 46 46 46 2116
843	212735 25 499 499 0.00000000576 0.00000000576 1 46 46 46 2116
844	212760 25 500 500 0.00000000576 0.00000000576 1 46 46 46 2116
845	212785 25 501 501 0.00000000576 0.00000000576 1 46 46 46 2116
846	212810 25 502 502 0.00000000576 0.00000000576 1 46 46 46 2116
847	212835 25 503 503 0.00000000576 0.00000000576 1 46 46 46 2116
848	212860 25 504 504 0.00000000576 0.00000000576 1 46 46 46 2116
849	212885 24 703 703 0.0000000576 0.0000000576 1 64 64 64 4096
850	212909 24 703 703 0.0000000576 0.0000000576 1 64 64 64 4096
851	212933 24 704 704 0.0000000576 0.0000000576 1 64 64 64 4096
852	212957 24 705 705 0.0000000576 0.0000000576 1 64 64 64 4096
853	212981 24 705 705 0.0000000576 0.0000000576 1 64 64 64 4096
854	213005 24 706 706 0.0000000576 0.0000000576 1 64 64 64 4096
855	213029 24 707 707 0.0000000576 0.0000000576 1 64 64 64 4096
856	213053 24 707 707 0.0000000576 0.0000000576 1 64 64 64 4096
857	213077 24 708 708 0.0000000576 0.0000000576 1 64 64 64 4096
858	213101 24 709 709 0.0000000576 0.0000000576 1 64 64 64 4096
859	213125 24 709 709 0.0000000576 0.0000000576 1 64 64 64 4096
860	213149 24 710 710 0.0000000576 0.0000000576 1 64 64 64 4096
861	213173 24 711 711 0.0000000576 0.0000000576 1 64 64 64 4096
862	213197 24 711 711 0.0000000576 0.0000000576 1 64 64 64 4096
863	213221 24 712 712 0.0000000576 0.0000000576 1 64 64 64 4096
864	213245 24 713 713 0.0000000576 0.0000000576 1 64 64 64 4096
865	213269 24 713 713 0.0000000576 0.0000000576 1 64 64 64 4096
866	213293 24 714 714 0.0000000576 0.0000000576 1 64 64 64 4096
867	213317 24 715 715 0.0000000576 0.0000000576 1 64 64 64 4096
868	213341 24 715 715 0.0000000576 0.0000000576 1 64 64 64 4096
869	213365 24 716 716 0.0000000576 0.0000000576 1 64 64 64 4096
870	213389 24 717 717 0.0000000576 0.0000000576 1 64 64 64 4096
871	213413 24 717 717 0.0000000576 0.0000000576 1 64 64 64 4096
872	213437 24 718 718 0.0000000576 0.0000000576 1 64 64 64 4096
873	213461 24 719 719 0.0000000576 0.0000000576 1 64 64 64 4096
874	213485 24 719 719 0.0000000576 0.0000000576 1 64 64 64 4096
875	213509 24 720 720 0.0000000576 0.0000000576 1 64 64 64 4096
876	213533 24 721 721 0.0000000576 0.0000000576 1 64 64 64 4096
877	213557 24 721 721 0.0000000576 0.0000000576 1 64 64 64 4096
878	213581 24 722 722 0.0000000576 0.0000000576 1 64 64 64 4096
879	213605 24 723 723 0.0000000576 0.0000000576 1 64 64 64 4096
880	213629 24 723 723 0.0000000576 0.0000000576 1 64 64 64 4096
881	213653 24 724 724 0.0000000576 0.0000000576 1 64 64 64 4096
882	213677 24 725 725 0.0000000576 0.0000000576 1 64 64 64 4096
883	213701 24 725 725 0.0000000576 0.0000000576 1 64 64 64 4096
884	213725 24 726 726 0.0000000576 0.0000000576 1 64 64 64 4096
885	213749 24 727 727 0.0000000576 0.0000000576 1 64 64 64 4096
886	213773 24 727 727 0.0000000576 0.0000000576 1 64 64 64 4096
887	213797 24 728 728 0.0000000576 0.0000000576 1 64 64 64 4096
888	213821 24 729 729 0.0000000576 0.0000000576 1 64 64 64 4096
889	213845 24 729 729 0.0000000576 0.0000000576 1 64 64 64 4096
890	213869 24 730 730 0.0000000576 0.0000000576 1 64 64 64 4096
891	213893 24 731 731 0.0000000576 0.0000000576 1 64 64 64 4096
892	213917 24 731 731 0.0000000576 0.0000000576 1 64 64 64 4096
893	213941 24 732 732 0.0000000576 0.0000000576 1 64 64 64 4096
894	213965 48 733 890 0.0000000576 0.0000001248 2 64 64 128 8192
895	214013 48 733 890 0.0000000576 0.0000001248 2 64 64 128 8192
896	214061 48 734 891 0.0000000576 0.0000001248 2 64 64 128 8192
897	214109 24 735 735 0.0000000576 0.0000000576 1 64 64 64 4096
898	214133 24 735 735 0.0000000576 0.0000000576 1 64 64 64 4096
899	214157 24 736 736 0.0000000576 0.0000000576 1 64 64 64 4096
900	214181 24 737 737 0.0000000576 0.0000000576 1 64 64 64 4096
901	214205 24 737 737 0.0000000576 0.0000000576 1 64 64 64 4096
902	214229 24 738 738 0.0000000576 0.0000000576 1 64 64 64 4096
903	214253 24 739 739 0.0000000576 0.0000000576 1 64 64 64 4096
904	214277 24 739 739 0.0000000576 0.0000000576 1 64 64 64 4096
905	214301 24 740 740 0.0000000576 0.0000000576 1 64 64 64 4096
906	214325 24 741 741 0.0000000576 0.0000000576 1 64 64 64 4096
907	214349 24 741 741 0.0000000576 0.0000000576 1 64 64 64 4096
908	214373 24 742 742 0.0000000576 0.0000000576 1 64 64 64 4096
909	214397 24 743 743 0.0000000576 0.0000000576 1 64 64 64 4096
910	214421 24 743 743 0.0000000576 0.0000000576 1 64 64 64 4096
911	214445 24 744 744 0.0000000576 0.0000000576 1 64 64 64 4096
912	214469 24 745 745 0.0000000576 0.0000000576 1 64 64 64 4096
913	214493 24 745 745 0.0000000576 0.0000000576 1 64 64 64 4096
914	214517 24 746 746 0.0000000576 0.0000000576 1 64 64 64 4096
915	214541 24 747 747 0.0000000576 0.0000000576 1 64 64 64 4096
916	214565 24 747 747 0.0000000576 0.0000000576 1 64 64 64 4096
917	214589 24 748 748 0.0000000576 0.0000000576 1 64 64 64 4096
918	214613 24 749 749 0.0000000576 0.0000000576 1 64 64 64 4096
919	214637 24 749 749 0.0000000576 0.0000000576 1 64 64 64 4096
920	214661 24 750 750 0.0000000576 0.0000000576 1 64 64 64 4096
921	214685 24 751 751 0.0000000576 0.0000000576 1 64 64 64 4096
922	214709 24 751 751 0.0000000576 0.0000000576 1 64 64 64 4096
923	214733 24 752 752 0.0000000576 0.0000000576 1 64 64 64 4096
924	214757 24 753 753 0.0000000576 0.0000000576 1 64 64 64 4096
925	214781 24 753 753 0.0000000576 0.0000000576 1 64 64 64 4096
926	214805 24 754 754 0.0000000576 0.0000000576 1 64 64 64 4096
927	214829 24 755 755 0.0000000576 0.0000000576 1 64 64 64 4096
928	214853 24 755 755 0.0000000576 0.0000000576 1 64 64 64 4096
929	214877 24 756 756 0.0000000576 0.0000000576 1 64 64 64 4096
930	214901 24 757 757 0.0000000576 0.0000000576 1 64 64 64 4096
931	214925 24 757 757 0.0000000576 0.0000000576 1 64 64 64 4096
932	214949 24 758 758 0.0000000576 0.0000000576 1 64 64 64 4096
933	214973 24 759 759 0.0000000576 0.0000000576 1 64 64 64 4096
934	214997 24 759 759 0.0000000576 0.0000000576 1 64 64 64 4096
935	215021 24 760 760 0.0000000576 0.0000000576 1 64 64 64 4096
936	215045 24 761 761 0.0000000576 0.0000000576 1 64 64 64 4096
937	215069 24 761 761 0.0000000576 0.0000000576 1 64 64 64 4096
938	215093 24 762 762 0.0000000576 0.0000000576 1 64 64 64 4096
939	215117 49 763 897 0.0000000576 0.0000004912 2 64 450 514 206596
940	215166 49 763 897 0.0000000576 0.0000004912 2 64 450 514 206596
941	215215 49 764 898 0.0000000576 0.0000004912 2 64 450 514 206596
942	215264 24 765 765 0.0000000576 0.0000000576 1 46 46 46 2116
943	215288 24 766 766 0.0000000576 0.0000000576 1 46 46 46 2116
944	215312 24 767 767 0.0000000576 0.0000000576 1 46 46 46 2116
945	215336 24 768 768 0.0000000576 0.0000000576 1 46 46 46 2116
946	215360 24 769 769 0.0000000576 0.0000000576 1 46 46 46 2116
947	215384 24 770 770 0.0000000576 0.0000000576 1 46 46 46 2116
948	215408 24 771 771 0.0000000576 0.0000000576 1 46 46 46 2116
949	215432 24 772 772 0.0000000576 0.0000000576 1 46 46 46 2116
950	215456 24 773 773 0.0000000576 0.0000000576 1 46 46 46 2116
951	215480 24 774 774 0.0000000576 0.0000000576 1 46 46 46 2116
952	215504 24 775 775 0.0000000576 0.0000000576 1 46 46 46 2116
953	215528 24 776 776 0.0000000576 0.0000000576 1 46 46 46 2116
954	215552 24 777 777 0.0000000576 0.0000000576 1 46 46 46 2116
955	215576 24 778 778 0.0000000576 0.0000000576 1 46 46 46 2116
956	215600 24 779 779 0.0000000576 0.0000000576 1 46 46 46 2116
957	215624 48 780 892 0.0000000576 0.0000001248 2 46 46 92 4232
958	215672 24 781 781 0.0000000576 0.0000000576 1 46 46 46 2116
959	215696 24 782 782 0.0000000576 0.0000000576 1 46 46 46 2116
960	215720 24 783 783 0.0000000576 0.0000000576 1 46 46 46 2116
961	215744 24 784 784 0.0000000576 0.0000000576 1 46 46 46 2116
962	215768 24 785 785 0.0000000576 0.0000000576 1 46 46 46 2116
963	215792 24 786 786 0.0000000576 0.0000000576 1 46 46 46 2116
964	215816 24 787 787 0.0000000576 0.0000000576 1 46 46 46 2116
965	215840 24 788 788 0.0000000576 0.0000000576 1 46 46 46 2116
966	215864 24 789 789 0.0000000576 0.0000000576 1 46 46 46 2116
967	215888 24 790 790 0.0000000576 0.0000000576 1 46 46 46 2116
968	215912 24 791 791 0.0000000576 0.0000000576 1 46 46 46 2116
969	215936 24 792 792 0.0000000576 0.0000000576 1 46 46 46 2116
970	215960 24 793 793 0.0000000576 0.0000000576 1 46 46 46 2116
971	215984 24 794 794 0.0000000576 0.0000000576 1 46 46 46 2116
972	216008 49 795 899 0.0000000576 0.0000004912 2 46 432 478 188740
973	216057 24 826 826 0.0000000576 0.0000000576 1 28 28 28 784
vector 974 KFatTreeNew.hosts.clientSwitch.ipv4.arp arpRequestSent:vector(packetBytes) ETV
attr source arpRequestSent
attr title "ARP request sent, vector(packetBytes)"
vector 975 KFatTreeNew.pod[0].edgeSwitch[0].ipv4.arp arpReplySent:vector(packetBytes) ETV
attr source arpReplySent
attr title "ARP replies sent, vector(packetBytes)"
25	216415 24 907 907 0.00000049696 0.00000049696 1 28 28 28 784
81	216439 48 901 915 0.0000004912 0.00000050272 2 28 432 460 187408
218	216487 25 908 908 0.00000049696 0.00000049696 1 46 46 46 2116
219	216512 25 908 908 0.00000049696 0.00000049696 1 64 64 64 4096
220	216537 48 908 908 0.00000049696 0.00000049696 2 0 1 1 1
221	216585 25 908 908 0.00000049696 0.00000049696 1 64 64 64 4096
222	216610 24 908 908 0.00000049696 0.00000049696 1 0 0 0 0
498	216634 50 902 916 0.0000004912 0.00000050272 2 46 450 496 204616
499	216684 50 902 916 0.0000004912 0.00000050272 2 64 450 514 206596
500	216734 94 902 916 0.0000004912 0.00000050272 4 0 1 2 2
501	216828 50 902 916 0.0000004912 0.00000050272 2 64 450 514 206596
502	216878 47 902 916 0.0000004912 0.00000050272 2 0 0 0 0
657	216925 25 911 911 0.00000050272 0.00000050272 1 64 64 64 4096
658	216950 25 911 911 0.00000050272 0.00000050272 1 64 64 64 4096
659	216975 25 912 912 0.00000050272 0.00000050272 1 64 64 64 4096
780	217000 25 903 903 0.00000049696 0.00000049696 1 64 64 64 4096
781	217025 25 903 903 0.00000049696 0.00000049696 1 64 64 64 4096
782	217050 25 904 904 0.00000049696 0.00000049696 1 64 64 64 4096
807	217075 25 913 913 0.00000050272 0.00000050272 1 46 46 46 2116
848	217100 25 905 905 0.00000049696 0.00000049696 1 46 46 46 2116
974	217125 24 900 900 0.0000004912 0.0000004912 1 28 28 28 784
975	217149 25 906 906 0.00000049696 0.00000049696 1 28 28 28 784
vector 976 KFatTreeNew.hosts.coordinator.app[0] throughput:vector ETV
attr source throughput(packetReceived)
attr title "throughput, vector"
attr unit bps
vector 977 KFatTreeNew.hosts.replica[1].app[0] throughput:vector ETV
attr source throughput(packetReceived)
attr title "throughput, vector"
attr unit bps
vector 978 KFatTreeNew.hosts.replica[3].app[0] throughput:vector ETV
attr source throughput(packetReceived)
attr title "throughput, vector"
attr unit bps
vector 979 KFatTreeNew.hosts.replica[7].app[0] throughput:vector ETV
attr source throughput(packetReceived)
attr title "throughput, vector"
attr unit bps
976	217791 25 917 917 0.000000522955 0.000000522955 1 0 0 0 0
977	217816 25 917 917 0.000000522955 0.000000522955 1 0 0 0 0
978	217841 25 917 917 0.000000522955 0.000000522955 1 0 0 0 0
979	217866 25 917 917 0.000000522955 0.000000522955 1 0 0 0 0

