version 2
run General-0-20220511-22:29:13-28673
attr configname General
attr datetime 20220511-22:29:13
attr experiment General
attr inifile omnetpp.ini
attr iterationvars ""
attr iterationvarsf ""
attr measurement ""
attr network KFatTreeNew
attr processid 28673
attr repetition 0
attr replication #0
attr resultdir results
attr runnumber 0
attr seedset 0
param **.k 4
param **.client.numApps 1
param **.client.app[0].typename "\"ClientApp\""
param **.client.app[0].localPort 100
param **.client.app[0].destPort 100
param **.client.app[0].messageLength 1250B
param **.client.app[0].sendInterval 0.5s
param **.client.app[0].destAddresses "\"hosts.coordinator\""
param **.coordinator.numApps 1
param **.coordinator.app[0].typename "\"CoordApp\""
param **.coordinator.app[0].localPort 100
param **.coordinator.app[0].destPort 100
param **.coordinator.app[0].messageLength 1250B
param **.coordinator.app[0].destAddresses "moduleListByPath(\"**.replica[*]\")"
param **.replica[*].numApps 1
param **.replica[*].app[0].typename "\"ReplicaApp\""
param **.replica[*].app[0].localPort 100
param **.replica[*].app[0].destPort 100
param **.replica[*].app[0].messageLength 1250B
param **.replica[*].app[0].destAddresses "\"hosts.coordinator\""
param **.app[0].chooseDestAddrMode "\"perBurst\""
param **.app[0].startTime 60s
param **.app[0].stopTime 1000s
param **.app[0].delayLimit 3s

scalar KFatTreeNew.coreSwitch[0].lo[0].lo rcvdPkFromHl:count 0
attr interpolationmode none
attr source packetReceivedFromUpper
attr title "packets received from higher layer, count"
scalar KFatTreeNew.coreSwitch[0].lo[0].lo rcvdPkFromHl:sum(packetBytes) 0
attr interpolationmode none
attr source packetReceivedFromUpper
attr title "packets received from higher layer, sum(packetBytes)"
scalar KFatTreeNew.coreSwitch[0].lo[0].lo passedUpPk:count 0
attr interpolationmode none
attr source packetSentToUpper
attr title "packets passed to higher layer, count"
scalar KFatTreeNew.coreSwitch[0].lo[0].lo passedUpPk:sum(packetBytes) 0
attr interpolationmode none
attr source packetSentToUpper
attr title "packets passed to higher layer, sum(packetBytes)"
scalar KFatTreeNew.coreSwitch[0].eth[0].mac.queue packetPopped:count 370
attr interpolationmode none
attr title "packet popped, count"
scalar KFatTreeNew.coreSwitch[0].eth[0].mac.queue packetPopped:sum(packetBytes) 478288
attr interpolationmode none
attr title "packet popped, sum(packetBytes)"
statistic KFatTreeNew.coreSwitch[0].eth[0].mac.queue queueingTime:histogram
field count 370
field mean 0
field stddev 0
field min 0
field max 0
field sum 0
field sqrsum 0
attr interpolationmode none
attr source queueingTime(packetPopped)
attr title "queueing times, histogram"
attr unit s
bin	-inf	0
bin	-0.5	0
bin	-0.48	0
bin	-0.46	0
bin	-0.44	0
bin	-0.42	0
bin	-0.4	0
bin	-0.38	0
bin	-0.36	0
bin	-0.34	0
bin	-0.32	0
bin	-0.3	0
bin	-0.28	0
bin	-0.26	0
bin	-0.24	0
bin	-0.22	0
bin	-0.2	0
bin	-0.18	0
bin	-0.16	0
bin	-0.14	0
bin	-0.12	0
bin	-0.1	0
bin	-0.08	0
bin	-0.06	0
bin	-0.04	0
bin	-0.02	0
bin	0	370
bin	0.02	0
bin	0.04	0
bin	0.06	0
bin	0.08	0
bin	0.1	0
bin	0.12	0
bin	0.14	0
bin	0.16	0
bin	0.18	0
bin	0.2	0
bin	0.22	0
bin	0.24	0
bin	0.26	0
bin	0.28	0
bin	0.3	0
bin	0.32	0
bin	0.34	0
bin	0.36	0
bin	0.38	0
bin	0.4	0
bin	0.42	0
bin	0.44	0
bin	0.46	0
bin	0.48	0
bin	0.5	0
scalar KFatTreeNew.coreSwitch[0].eth[0].mac.queue queueLength:max 1
attr interpolationmode sample-hold
attr source "count(packetPushed) - count(packetPopped) - count(packetRemoved) - count(packetDropped)"
attr title "queue length, max"
scalar KFatTreeNew.coreSwitch[0].eth[0].mac.queue queueLength:timeavg 0
attr interpolationmode sample-hold
attr source "count(packetPushed) - count(packetPopped) - count(packetRemoved) - count(packetDropped)"
attr title "queue length, timeavg"
scalar KFatTreeNew.coreSwitch[0].eth[0].mac.queue packetPushed:count 370
attr interpolationmode none
attr title "packet pushed, count"
scalar KFatTreeNew.coreSwitch[0].eth[0].mac.queue packetPushed:sum(packetBytes) 478288
attr interpolationmode none
attr title "packet pushed, sum(packetBytes)"
scalar KFatTreeNew.coreSwitch[0].eth[0].mac.queue packetDropQueueOverflow:count 0
attr interpolationmode none
attr source packetDropReasonIsQueueOverflow(packetDropped)
attr title "packet drops: queue overflow, count"
scalar KFatTreeNew.coreSwitch[0].eth[0].mac.queue packetDropQueueOverflow:sum(packetBytes) 0
attr interpolationmode none
attr source packetDropReasonIsQueueOverflow(packetDropped)
attr title "packet drops: queue overflow, sum(packetBytes)"
scalar KFatTreeNew.coreSwitch[0].eth[0].mac.queue packetRemoved:count 0
attr interpolationmode none
attr title "packets removed, count"
scalar KFatTreeNew.coreSwitch[0].eth[0].mac.queue packetRemoved:sum(packetBytes) 0
attr interpolationmode none
attr title "packets removed, sum(packetBytes)"
scalar KFatTreeNew.coreSwitch[0].eth[0].mac "simulated time" 75.00001657856
scalar KFatTreeNew.coreSwitch[0].eth[0].mac full-duplex 1
scalar KFatTreeNew.coreSwitch[0].eth[0].mac "frames/sec sent" 4.9199989124467
scalar KFatTreeNew.coreSwitch[0].eth[0].mac "frames/sec rcvd" 9.7599978425772
scalar KFatTreeNew.coreSwitch[0].eth[0].mac "bits/sec sent" 50879.135419963
scalar KFatTreeNew.coreSwitch[0].eth[0].mac "bits/sec rcvd" 101060.24432756
scalar KFatTreeNew.coreSwitch[0].eth[0].mac "rx channel idle (%)" 100
scalar KFatTreeNew.coreSwitch[0].eth[0].mac "rx channel utilization (%)" 0
scalar KFatTreeNew.coreSwitch[0].eth[0].mac rxPausePkUnits:count 0
attr interpolationmode none
attr title "pause units received, count"
scalar KFatTreeNew.coreSwitch[0].eth[0].mac rxPausePkUnits:sum 0
attr interpolationmode none
attr title "pause units received, sum"
scalar KFatTreeNew.coreSwitch[0].eth[0].mac txPausePkUnits:count 0
attr interpolationmode none
attr title "pause units sent, count"
scalar KFatTreeNew.coreSwitch[0].eth[0].mac txPausePkUnits:sum 0
attr interpolationmode none
attr title "pause units sent, sum"
scalar KFatTreeNew.coreSwitch[0].eth[0].mac rxPkOk:count 732
attr interpolationmode none
attr source rxPkOk
attr title "packets received OK, count"
scalar KFatTreeNew.coreSwitch[0].eth[0].mac rxPkOk:sum(packetBytes) 947440
attr interpolationmode none
attr source rxPkOk
attr title "packets received OK, sum(packetBytes)"
scalar KFatTreeNew.coreSwitch[0].eth[0].mac txPk:count 369
attr interpolationmode none
attr source packetSentToLower
attr title "packets transmitted, count"
scalar KFatTreeNew.coreSwitch[0].eth[0].mac txPk:sum(packetBytes) 476992
attr interpolationmode none
attr source packetSentToLower
attr title "packets transmitted, sum(packetBytes)"
scalar KFatTreeNew.coreSwitch[0].eth[0].mac packetReceivedFromUpper:count 370
attr interpolationmode none
attr source packetReceivedFromUpper
attr title "packet bytes from higher layer, count"
scalar KFatTreeNew.coreSwitch[0].eth[0].mac packetReceivedFromUpper:sum(packetBytes) 478270
attr interpolationmode none
attr source packetReceivedFromUpper
attr title "packet bytes from higher layer, sum(packetBytes)"
scalar KFatTreeNew.coreSwitch[0].eth[0].mac passedUpPk:count 732
attr interpolationmode none
attr source packetSentToUpper
attr title "packets passed to higher layer, count"
scalar KFatTreeNew.coreSwitch[0].eth[0].mac passedUpPk:sum(packetBytes) 947440
attr interpolationmode none
attr source packetSentToUpper
attr title "packets passed to higher layer, sum(packetBytes)"
scalar KFatTreeNew.coreSwitch[0].eth[0].mac packetDropIncorrectlyReceived:count 0
attr interpolationmode none
attr source packetDropReasonIsIncorrectlyReceived(packetDropped)
attr title "packet drop: incorrectly received, count"
scalar KFatTreeNew.coreSwitch[0].eth[0].mac packetDropIncorrectlyReceived:sum(packetBytes) 0
attr interpolationmode none
attr source packetDropReasonIsIncorrectlyReceived(packetDropped)
attr title "packet drop: incorrectly received, sum(packetBytes)"
scalar KFatTreeNew.coreSwitch[0].eth[0].mac packetDropInterfaceDown:count 0
attr interpolationmode none
attr source packetDropReasonIsInterfaceDown(packetDropped)
attr title "packet drop: interface down, count"
scalar KFatTreeNew.coreSwitch[0].eth[0].mac packetDropInterfaceDown:sum(packetBytes) 0
attr interpolationmode none
attr source packetDropReasonIsInterfaceDown(packetDropped)
attr title "packet drop: interface down, sum(packetBytes)"
scalar KFatTreeNew.coreSwitch[0].eth[0].mac packetDropNotAddressedToUs:count 0
attr interpolationmode none
attr source packetDropReasonIsNotAddressedToUs(packetDropped)
attr title "packet drop: not addressed to us, count"
scalar KFatTreeNew.coreSwitch[0].eth[0].mac packetDropNotAddressedToUs:sum(packetBytes) 0
attr interpolationmode none
attr source packetDropReasonIsNotAddressedToUs(packetDropped)
attr title "packet drop: not addressed to us, sum(packetBytes)"
scalar KFatTreeNew.coreSwitch[0].eth[0].encap pauseSent:count 0
attr title "pause sent, count"
scalar KFatTreeNew.coreSwitch[0].eth[0].encap pauseSent:sum 0
attr title "pause sent, sum"
scalar KFatTreeNew.coreSwitch[0].eth[0].encap decapPk:count 732
attr interpolationmode none
attr source decapPk
attr title "packets decapsulated, count"
scalar KFatTreeNew.coreSwitch[0].eth[0].encap decapPk:sum(packetBytes) 934264
attr interpolationmode none
attr source decapPk
attr title "packets decapsulated, sum(packetBytes)"
scalar KFatTreeNew.coreSwitch[0].eth[0].encap encapPk:count 370
attr interpolationmode none
attr source encapPk
attr title "packets encapsulated, count"
scalar KFatTreeNew.coreSwitch[0].eth[0].encap encapPk:sum(packetBytes) 471610
attr interpolationmode none
attr source encapPk
attr title "packets encapsulated, sum(packetBytes)"
scalar KFatTreeNew.coreSwitch[0].eth[1].mac.queue packetPopped:count 245
attr interpolationmode none
attr title "packet popped, count"
scalar KFatTreeNew.coreSwitch[0].eth[1].mac.queue packetPopped:sum(packetBytes) 316288
attr interpolationmode none
attr title "packet popped, sum(packetBytes)"
statistic KFatTreeNew.coreSwitch[0].eth[1].mac.queue queueingTime:histogram
field count 245
field mean 0
field stddev 0
field min 0
field max 0
field sum 0
field sqrsum 0
attr interpolationmode none
attr source queueingTime(packetPopped)
attr title "queueing times, histogram"
attr unit s
bin	-inf	0
bin	-0.5	0
bin	-0.48	0
bin	-0.46	0
bin	-0.44	0
bin	-0.42	0
bin	-0.4	0
bin	-0.38	0
bin	-0.36	0
bin	-0.34	0
bin	-0.32	0
bin	-0.3	0
bin	-0.28	0
bin	-0.26	0
bin	-0.24	0
bin	-0.22	0
bin	-0.2	0
bin	-0.18	0
bin	-0.16	0
bin	-0.14	0
bin	-0.12	0
bin	-0.1	0
bin	-0.08	0
bin	-0.06	0
bin	-0.04	0
bin	-0.02	0
bin	0	245
bin	0.02	0
bin	0.04	0
bin	0.06	0
bin	0.08	0
bin	0.1	0
bin	0.12	0
bin	0.14	0
bin	0.16	0
bin	0.18	0
bin	0.2	0
bin	0.22	0
bin	0.24	0
bin	0.26	0
bin	0.28	0
bin	0.3	0
bin	0.32	0
bin	0.34	0
bin	0.36	0
bin	0.38	0
bin	0.4	0
bin	0.42	0
bin	0.44	0
bin	0.46	0
bin	0.48	0
bin	0.5	0
scalar KFatTreeNew.coreSwitch[0].eth[1].mac.queue queueLength:max 1
attr interpolationmode sample-hold
attr source "count(packetPushed) - count(packetPopped) - count(packetRemoved) - count(packetDropped)"
attr title "queue length, max"
scalar KFatTreeNew.coreSwitch[0].eth[1].mac.queue queueLength:timeavg 0
attr interpolationmode sample-hold
attr source "count(packetPushed) - count(packetPopped) - count(packetRemoved) - count(packetDropped)"
attr title "queue length, timeavg"
scalar KFatTreeNew.coreSwitch[0].eth[1].mac.queue packetPushed:count 245
attr interpolationmode none
attr title "packet pushed, count"
scalar KFatTreeNew.coreSwitch[0].eth[1].mac.queue packetPushed:sum(packetBytes) 316288
attr interpolationmode none
attr title "packet pushed, sum(packetBytes)"
scalar KFatTreeNew.coreSwitch[0].eth[1].mac.queue packetDropQueueOverflow:count 0
attr interpolationmode none
attr source packetDropReasonIsQueueOverflow(packetDropped)
attr title "packet drops: queue overflow, count"
scalar KFatTreeNew.coreSwitch[0].eth[1].mac.queue packetDropQueueOverflow:sum(packetBytes) 0
attr interpolationmode none
attr source packetDropReasonIsQueueOverflow(packetDropped)
attr title "packet drops: queue overflow, sum(packetBytes)"
scalar KFatTreeNew.coreSwitch[0].eth[1].mac.queue packetRemoved:count 0
attr interpolationmode none
attr title "packets removed, count"
scalar KFatTreeNew.coreSwitch[0].eth[1].mac.queue packetRemoved:sum(packetBytes) 0
attr interpolationmode none
attr title "packets removed, sum(packetBytes)"
scalar KFatTreeNew.coreSwitch[0].eth[1].mac "simulated time" 75.00001657856
scalar KFatTreeNew.coreSwitch[0].eth[1].mac full-duplex 1
scalar KFatTreeNew.coreSwitch[0].eth[1].mac "frames/sec sent" 3.2666659445784
scalar KFatTreeNew.coreSwitch[0].eth[1].mac "frames/sec rcvd" 1.6666662982543
scalar KFatTreeNew.coreSwitch[0].eth[1].mac "bits/sec sent" 33737.379209104
scalar KFatTreeNew.coreSwitch[0].eth[1].mac "bits/sec rcvd" 17148.582876016
scalar KFatTreeNew.coreSwitch[0].eth[1].mac "rx channel idle (%)" 100
scalar KFatTreeNew.coreSwitch[0].eth[1].mac "rx channel utilization (%)" 0
scalar KFatTreeNew.coreSwitch[0].eth[1].mac rxPausePkUnits:count 0
attr interpolationmode none
attr title "pause units received, count"
scalar KFatTreeNew.coreSwitch[0].eth[1].mac rxPausePkUnits:sum 0
attr interpolationmode none
attr title "pause units received, sum"
scalar KFatTreeNew.coreSwitch[0].eth[1].mac txPausePkUnits:count 0
attr interpolationmode none
attr title "pause units sent, count"
scalar KFatTreeNew.coreSwitch[0].eth[1].mac txPausePkUnits:sum 0
attr interpolationmode none
attr title "pause units sent, sum"
scalar KFatTreeNew.coreSwitch[0].eth[1].mac rxPkOk:count 125
attr interpolationmode none
attr source rxPkOk
attr title "packets received OK, count"
scalar KFatTreeNew.coreSwitch[0].eth[1].mac rxPkOk:sum(packetBytes) 160768
attr interpolationmode none
attr source rxPkOk
attr title "packets received OK, sum(packetBytes)"
scalar KFatTreeNew.coreSwitch[0].eth[1].mac txPk:count 245
attr interpolationmode none
attr source packetSentToLower
attr title "packets transmitted, count"
scalar KFatTreeNew.coreSwitch[0].eth[1].mac txPk:sum(packetBytes) 316288
attr interpolationmode none
attr source packetSentToLower
attr title "packets transmitted, sum(packetBytes)"
scalar KFatTreeNew.coreSwitch[0].eth[1].mac packetReceivedFromUpper:count 245
attr interpolationmode none
attr source packetReceivedFromUpper
attr title "packet bytes from higher layer, count"
scalar KFatTreeNew.coreSwitch[0].eth[1].mac packetReceivedFromUpper:sum(packetBytes) 316270
attr interpolationmode none
attr source packetReceivedFromUpper
attr title "packet bytes from higher layer, sum(packetBytes)"
scalar KFatTreeNew.coreSwitch[0].eth[1].mac passedUpPk:count 125
attr interpolationmode none
attr source packetSentToUpper
attr title "packets passed to higher layer, count"
scalar KFatTreeNew.coreSwitch[0].eth[1].mac passedUpPk:sum(packetBytes) 160768
attr interpolationmode none
attr source packetSentToUpper
attr title "packets passed to higher layer, sum(packetBytes)"
scalar KFatTreeNew.coreSwitch[0].eth[1].mac packetDropIncorrectlyReceived:count 0
attr interpolationmode none
attr source packetDropReasonIsIncorrectlyReceived(packetDropped)
attr title "packet drop: incorrectly received, count"
scalar KFatTreeNew.coreSwitch[0].eth[1].mac packetDropIncorrectlyReceived:sum(packetBytes) 0
attr interpolationmode none
attr source packetDropReasonIsIncorrectlyReceived(packetDropped)
attr title "packet drop: incorrectly received, sum(packetBytes)"
scalar KFatTreeNew.coreSwitch[0].eth[1].mac packetDropInterfaceDown:count 0
attr interpolationmode none
attr source packetDropReasonIsInterfaceDown(packetDropped)
attr title "packet drop: interface down, count"
scalar KFatTreeNew.coreSwitch[0].eth[1].mac packetDropInterfaceDown:sum(packetBytes) 0
attr interpolationmode none
attr source packetDropReasonIsInterfaceDown(packetDropped)
attr title "packet drop: interface down, sum(packetBytes)"
scalar KFatTreeNew.coreSwitch[0].eth[1].mac packetDropNotAddressedToUs:count 0
attr interpolationmode none
attr source packetDropReasonIsNotAddressedToUs(packetDropped)
attr title "packet drop: not addressed to us, count"
scalar KFatTreeNew.coreSwitch[0].eth[1].mac packetDropNotAddressedToUs:sum(packetBytes) 0
attr interpolationmode none
attr source packetDropReasonIsNotAddressedToUs(packetDropped)
attr title "packet drop: not addressed to us, sum(packetBytes)"
scalar KFatTreeNew.coreSwitch[0].eth[1].encap pauseSent:count 0
attr title "pause sent, count"
scalar KFatTreeNew.coreSwitch[0].eth[1].encap pauseSent:sum 0
attr title "pause sent, sum"
scalar KFatTreeNew.coreSwitch[0].eth[1].encap decapPk:count 125
attr interpolationmode none
attr source decapPk
attr title "packets decapsulated, count"
scalar KFatTreeNew.coreSwitch[0].eth[1].encap decapPk:sum(packetBytes) 158518
attr interpolationmode none
attr source decapPk
attr title "packets decapsulated, sum(packetBytes)"
scalar KFatTreeNew.coreSwitch[0].eth[1].encap encapPk:count 245
attr interpolationmode none
attr source encapPk
attr title "packets encapsulated, count"
scalar KFatTreeNew.coreSwitch[0].eth[1].encap encapPk:sum(packetBytes) 311860
attr interpolationmode none
attr source encapPk
attr title "packets encapsulated, sum(packetBytes)"
scalar KFatTreeNew.coreSwitch[0].eth[2].mac.queue packetPopped:count 245
attr interpolationmode none
attr title "packet popped, count"
scalar KFatTreeNew.coreSwitch[0].eth[2].mac.queue packetPopped:sum(packetBytes) 316288
attr interpolationmode none
attr title "packet popped, sum(packetBytes)"
statistic KFatTreeNew.coreSwitch[0].eth[2].mac.queue queueingTime:histogram
field count 245
field mean 0
field stddev 0
field min 0
field max 0
field sum 0
field sqrsum 0
attr interpolationmode none
attr source queueingTime(packetPopped)
attr title "queueing times, histogram"
attr unit s
bin	-inf	0
bin	-0.5	0
bin	-0.48	0
bin	-0.46	0
bin	-0.44	0
bin	-0.42	0
bin	-0.4	0
bin	-0.38	0
bin	-0.36	0
bin	-0.34	0
bin	-0.32	0
bin	-0.3	0
bin	-0.28	0
bin	-0.26	0
bin	-0.24	0
bin	-0.22	0
bin	-0.2	0
bin	-0.18	0
bin	-0.16	0
bin	-0.14	0
bin	-0.12	0
bin	-0.1	0
bin	-0.08	0
bin	-0.06	0
bin	-0.04	0
bin	-0.02	0
bin	0	245
bin	0.02	0
bin	0.04	0
bin	0.06	0
bin	0.08	0
bin	0.1	0
bin	0.12	0
bin	0.14	0
bin	0.16	0
bin	0.18	0
bin	0.2	0
bin	0.22	0
bin	0.24	0
bin	0.26	0
bin	0.28	0
bin	0.3	0
bin	0.32	0
bin	0.34	0
bin	0.36	0
bin	0.38	0
bin	0.4	0
bin	0.42	0
bin	0.44	0
bin	0.46	0
bin	0.48	0
bin	0.5	0
scalar KFatTreeNew.coreSwitch[0].eth[2].mac.queue queueLength:max 1
attr interpolationmode sample-hold
attr source "count(packetPushed) - count(packetPopped) - count(packetRemoved) - count(packetDropped)"
attr title "queue length, max"
scalar KFatTreeNew.coreSwitch[0].eth[2].mac.queue queueLength:timeavg 0
attr interpolationmode sample-hold
attr source "count(packetPushed) - count(packetPopped) - count(packetRemoved) - count(packetDropped)"
attr title "queue length, timeavg"
scalar KFatTreeNew.coreSwitch[0].eth[2].mac.queue packetPushed:count 245
attr interpolationmode none
attr title "packet pushed, count"
scalar KFatTreeNew.coreSwitch[0].eth[2].mac.queue packetPushed:sum(packetBytes) 316288
attr interpolationmode none
attr title "packet pushed, sum(packetBytes)"
scalar KFatTreeNew.coreSwitch[0].eth[2].mac.queue packetDropQueueOverflow:count 0
attr interpolationmode none
attr source packetDropReasonIsQueueOverflow(packetDropped)
attr title "packet drops: queue overflow, count"
scalar KFatTreeNew.coreSwitch[0].eth[2].mac.queue packetDropQueueOverflow:sum(packetBytes) 0
attr interpolationmode none
attr source packetDropReasonIsQueueOverflow(packetDropped)
attr title "packet drops: queue overflow, sum(packetBytes)"
scalar KFatTreeNew.coreSwitch[0].eth[2].mac.queue packetRemoved:count 0
attr interpolationmode none
attr title "packets removed, count"
scalar KFatTreeNew.coreSwitch[0].eth[2].mac.queue packetRemoved:sum(packetBytes) 0
attr interpolationmode none
attr title "packets removed, sum(packetBytes)"
scalar KFatTreeNew.coreSwitch[0].eth[2].mac "simulated time" 75.00001657856
scalar KFatTreeNew.coreSwitch[0].eth[2].mac full-duplex 1
scalar KFatTreeNew.coreSwitch[0].eth[2].mac "frames/sec sent" 3.2666659445784
scalar KFatTreeNew.coreSwitch[0].eth[2].mac "frames/sec rcvd" 1.6666662982543
scalar KFatTreeNew.coreSwitch[0].eth[2].mac "bits/sec sent" 33737.379209104
scalar KFatTreeNew.coreSwitch[0].eth[2].mac "bits/sec rcvd" 17148.582876016
scalar KFatTreeNew.coreSwitch[0].eth[2].mac "rx channel idle (%)" 100
scalar KFatTreeNew.coreSwitch[0].eth[2].mac "rx channel utilization (%)" 0
scalar KFatTreeNew.coreSwitch[0].eth[2].mac rxPausePkUnits:count 0
attr interpolationmode none
attr title "pause units received, count"
scalar KFatTreeNew.coreSwitch[0].eth[2].mac rxPausePkUnits:sum 0
attr interpolationmode none
attr title "pause units received, sum"
scalar KFatTreeNew.coreSwitch[0].eth[2].mac txPausePkUnits:count 0
attr interpolationmode none
attr title "pause units sent, count"
scalar KFatTreeNew.coreSwitch[0].eth[2].mac txPausePkUnits:sum 0
attr interpolationmode none
attr title "pause units sent, sum"
scalar KFatTreeNew.coreSwitch[0].eth[2].mac rxPkOk:count 125
attr interpolationmode none
attr source rxPkOk
attr title "packets received OK, count"
scalar KFatTreeNew.coreSwitch[0].eth[2].mac rxPkOk:sum(packetBytes) 160768
attr interpolationmode none
attr source rxPkOk
attr title "packets received OK, sum(packetBytes)"
scalar KFatTreeNew.coreSwitch[0].eth[2].mac txPk:count 245
attr interpolationmode none
attr source packetSentToLower
attr title "packets transmitted, count"
scalar KFatTreeNew.coreSwitch[0].eth[2].mac txPk:sum(packetBytes) 316288
attr interpolationmode none
attr source packetSentToLower
attr title "packets transmitted, sum(packetBytes)"
scalar KFatTreeNew.coreSwitch[0].eth[2].mac packetReceivedFromUpper:count 245
attr interpolationmode none
attr source packetReceivedFromUpper
attr title "packet bytes from higher layer, count"
scalar KFatTreeNew.coreSwitch[0].eth[2].mac packetReceivedFromUpper:sum(packetBytes) 316270
attr interpolationmode none
attr source packetReceivedFromUpper
attr title "packet bytes from higher layer, sum(packetBytes)"
scalar KFatTreeNew.coreSwitch[0].eth[2].mac passedUpPk:count 125
attr interpolationmode none
attr source packetSentToUpper
attr title "packets passed to higher layer, count"
scalar KFatTreeNew.coreSwitch[0].eth[2].mac passedUpPk:sum(packetBytes) 160768
attr interpolationmode none
attr source packetSentToUpper
attr title "packets passed to higher layer, sum(packetBytes)"
scalar KFatTreeNew.coreSwitch[0].eth[2].mac packetDropIncorrectlyReceived:count 0
attr interpolationmode none
attr source packetDropReasonIsIncorrectlyReceived(packetDropped)
attr title "packet drop: incorrectly received, count"
scalar KFatTreeNew.coreSwitch[0].eth[2].mac packetDropIncorrectlyReceived:sum(packetBytes) 0
attr interpolationmode none
attr source packetDropReasonIsIncorrectlyReceived(packetDropped)
attr title "packet drop: incorrectly received, sum(packetBytes)"
scalar KFatTreeNew.coreSwitch[0].eth[2].mac packetDropInterfaceDown:count 0
attr interpolationmode none
attr source packetDropReasonIsInterfaceDown(packetDropped)
attr title "packet drop: interface down, count"
scalar KFatTreeNew.coreSwitch[0].eth[2].mac packetDropInterfaceDown:sum(packetBytes) 0
attr interpolationmode none
attr source packetDropReasonIsInterfaceDown(packetDropped)
attr title "packet drop: interface down, sum(packetBytes)"
scalar KFatTreeNew.coreSwitch[0].eth[2].mac packetDropNotAddressedToUs:count 0
attr interpolationmode none
attr source packetDropReasonIsNotAddressedToUs(packetDropped)
attr title "packet drop: not addressed to us, count"
scalar KFatTreeNew.coreSwitch[0].eth[2].mac packetDropNotAddressedToUs:sum(packetBytes) 0
attr interpolationmode none
attr source packetDropReasonIsNotAddressedToUs(packetDropped)
attr title "packet drop: not addressed to us, sum(packetBytes)"
scalar KFatTreeNew.coreSwitch[0].eth[2].encap pauseSent:count 0
attr title "pause sent, count"
scalar KFatTreeNew.coreSwitch[0].eth[2].encap pauseSent:sum 0
attr title "pause sent, sum"
scalar KFatTreeNew.coreSwitch[0].eth[2].encap decapPk:count 125
attr interpolationmode none
attr source decapPk
attr title "packets decapsulated, count"
scalar KFatTreeNew.coreSwitch[0].eth[2].encap decapPk:sum(packetBytes) 158518
attr interpolationmode none
attr source decapPk
attr title "packets decapsulated, sum(packetBytes)"
scalar KFatTreeNew.coreSwitch[0].eth[2].encap encapPk:count 245
attr interpolationmode none
attr source encapPk
attr title "packets encapsulated, count"
scalar KFatTreeNew.coreSwitch[0].eth[2].encap encapPk:sum(packetBytes) 311860
attr interpolationmode none
attr source encapPk
attr title "packets encapsulated, sum(packetBytes)"
scalar KFatTreeNew.coreSwitch[0].eth[3].mac.queue packetPopped:count 244
attr interpolationmode none
attr title "packet popped, count"
scalar KFatTreeNew.coreSwitch[0].eth[3].mac.queue packetPopped:sum(packetBytes) 314992
attr interpolationmode none
attr title "packet popped, sum(packetBytes)"
statistic KFatTreeNew.coreSwitch[0].eth[3].mac.queue queueingTime:histogram
field count 244
field mean 0
field stddev 0
field min 0
field max 0
field sum 0
field sqrsum 0
attr interpolationmode none
attr source queueingTime(packetPopped)
attr title "queueing times, histogram"
attr unit s
bin	-inf	0
bin	-0.5	0
bin	-0.48	0
bin	-0.46	0
bin	-0.44	0
bin	-0.42	0
bin	-0.4	0
bin	-0.38	0
bin	-0.36	0
bin	-0.34	0
bin	-0.32	0
bin	-0.3	0
bin	-0.28	0
bin	-0.26	0
bin	-0.24	0
bin	-0.22	0
bin	-0.2	0
bin	-0.18	0
bin	-0.16	0
bin	-0.14	0
bin	-0.12	0
bin	-0.1	0
bin	-0.08	0
bin	-0.06	0
bin	-0.04	0
bin	-0.02	0
bin	0	244
bin	0.02	0
bin	0.04	0
bin	0.06	0
bin	0.08	0
bin	0.1	0
bin	0.12	0
bin	0.14	0
bin	0.16	0
bin	0.18	0
bin	0.2	0
bin	0.22	0
bin	0.24	0
bin	0.26	0
bin	0.28	0
bin	0.3	0
bin	0.32	0
bin	0.34	0
bin	0.36	0
bin	0.38	0
bin	0.4	0
bin	0.42	0
bin	0.44	0
bin	0.46	0
bin	0.48	0
bin	0.5	0
scalar KFatTreeNew.coreSwitch[0].eth[3].mac.queue queueLength:max 1
attr interpolationmode sample-hold
attr source "count(packetPushed) - count(packetPopped) - count(packetRemoved) - count(packetDropped)"
attr title "queue length, max"
scalar KFatTreeNew.coreSwitch[0].eth[3].mac.queue queueLength:timeavg 0
attr interpolationmode sample-hold
attr source "count(packetPushed) - count(packetPopped) - count(packetRemoved) - count(packetDropped)"
attr title "queue length, timeavg"
scalar KFatTreeNew.coreSwitch[0].eth[3].mac.queue packetPushed:count 244
attr interpolationmode none
attr title "packet pushed, count"
scalar KFatTreeNew.coreSwitch[0].eth[3].mac.queue packetPushed:sum(packetBytes) 314992
attr interpolationmode none
attr title "packet pushed, sum(packetBytes)"
scalar KFatTreeNew.coreSwitch[0].eth[3].mac.queue packetDropQueueOverflow:count 0
attr interpolationmode none
attr source packetDropReasonIsQueueOverflow(packetDropped)
attr title "packet drops: queue overflow, count"
scalar KFatTreeNew.coreSwitch[0].eth[3].mac.queue packetDropQueueOverflow:sum(packetBytes) 0
attr interpolationmode none
attr source packetDropReasonIsQueueOverflow(packetDropped)
attr title "packet drops: queue overflow, sum(packetBytes)"
scalar KFatTreeNew.coreSwitch[0].eth[3].mac.queue packetRemoved:count 0
attr interpolationmode none
attr title "packets removed, count"
scalar KFatTreeNew.coreSwitch[0].eth[3].mac.queue packetRemoved:sum(packetBytes) 0
attr interpolationmode none
attr title "packets removed, sum(packetBytes)"
scalar KFatTreeNew.coreSwitch[0].eth[3].mac "simulated time" 75.00001657856
scalar KFatTreeNew.coreSwitch[0].eth[3].mac full-duplex 1
scalar KFatTreeNew.coreSwitch[0].eth[3].mac "frames/sec sent" 3.2533326141924
scalar KFatTreeNew.coreSwitch[0].eth[3].mac "frames/sec rcvd" 1.6266663070962
scalar KFatTreeNew.coreSwitch[0].eth[3].mac "bits/sec sent" 33599.139239662
scalar KFatTreeNew.coreSwitch[0].eth[3].mac "bits/sec rcvd" 16733.862967689
scalar KFatTreeNew.coreSwitch[0].eth[3].mac "rx channel idle (%)" 100
scalar KFatTreeNew.coreSwitch[0].eth[3].mac "rx channel utilization (%)" 0
scalar KFatTreeNew.coreSwitch[0].eth[3].mac rxPausePkUnits:count 0
attr interpolationmode none
attr title "pause units received, count"
scalar KFatTreeNew.coreSwitch[0].eth[3].mac rxPausePkUnits:sum 0
attr interpolationmode none
attr title "pause units received, sum"
scalar KFatTreeNew.coreSwitch[0].eth[3].mac txPausePkUnits:count 0
attr interpolationmode none
attr title "pause units sent, count"
scalar KFatTreeNew.coreSwitch[0].eth[3].mac txPausePkUnits:sum 0
attr interpolationmode none
attr title "pause units sent, sum"
scalar KFatTreeNew.coreSwitch[0].eth[3].mac rxPkOk:count 122
attr interpolationmode none
attr source rxPkOk
attr title "packets received OK, count"
scalar KFatTreeNew.coreSwitch[0].eth[3].mac rxPkOk:sum(packetBytes) 156880
attr interpolationmode none
attr source rxPkOk
attr title "packets received OK, sum(packetBytes)"
scalar KFatTreeNew.coreSwitch[0].eth[3].mac txPk:count 244
attr interpolationmode none
attr source packetSentToLower
attr title "packets transmitted, count"
scalar KFatTreeNew.coreSwitch[0].eth[3].mac txPk:sum(packetBytes) 314992
attr interpolationmode none
attr source packetSentToLower
attr title "packets transmitted, sum(packetBytes)"
scalar KFatTreeNew.coreSwitch[0].eth[3].mac packetReceivedFromUpper:count 244
attr interpolationmode none
attr source packetReceivedFromUpper
attr title "packet bytes from higher layer, count"
scalar KFatTreeNew.coreSwitch[0].eth[3].mac packetReceivedFromUpper:sum(packetBytes) 314974
attr interpolationmode none
attr source packetReceivedFromUpper
attr title "packet bytes from higher layer, sum(packetBytes)"
scalar KFatTreeNew.coreSwitch[0].eth[3].mac passedUpPk:count 122
attr interpolationmode none
attr source packetSentToUpper
attr title "packets passed to higher layer, count"
scalar KFatTreeNew.coreSwitch[0].eth[3].mac passedUpPk:sum(packetBytes) 156880
attr interpolationmode none
attr source packetSentToUpper
attr title "packets passed to higher layer, sum(packetBytes)"
scalar KFatTreeNew.coreSwitch[0].eth[3].mac packetDropIncorrectlyReceived:count 0
attr interpolationmode none
attr source packetDropReasonIsIncorrectlyReceived(packetDropped)
attr title "packet drop: incorrectly received, count"
scalar KFatTreeNew.coreSwitch[0].eth[3].mac packetDropIncorrectlyReceived:sum(packetBytes) 0
attr interpolationmode none
attr source packetDropReasonIsIncorrectlyReceived(packetDropped)
attr title "packet drop: incorrectly received, sum(packetBytes)"
scalar KFatTreeNew.coreSwitch[0].eth[3].mac packetDropInterfaceDown:count 0
attr interpolationmode none
attr source packetDropReasonIsInterfaceDown(packetDropped)
attr title "packet drop: interface down, count"
scalar KFatTreeNew.coreSwitch[0].eth[3].mac packetDropInterfaceDown:sum(packetBytes) 0
attr interpolationmode none
attr source packetDropReasonIsInterfaceDown(packetDropped)
attr title "packet drop: interface down, sum(packetBytes)"
scalar KFatTreeNew.coreSwitch[0].eth[3].mac packetDropNotAddressedToUs:count 0
attr interpolationmode none
attr source packetDropReasonIsNotAddressedToUs(packetDropped)
attr title "packet drop: not addressed to us, count"
scalar KFatTreeNew.coreSwitch[0].eth[3].mac packetDropNotAddressedToUs:sum(packetBytes) 0
attr interpolationmode none
attr source packetDropReasonIsNotAddressedToUs(packetDropped)
attr title "packet drop: not addressed to us, sum(packetBytes)"
scalar KFatTreeNew.coreSwitch[0].eth[3].encap pauseSent:count 0
attr title "pause sent, count"
scalar KFatTreeNew.coreSwitch[0].eth[3].encap pauseSent:sum 0
attr title "pause sent, sum"
scalar KFatTreeNew.coreSwitch[0].eth[3].encap decapPk:count 122
attr interpolationmode none
attr source decapPk
attr title "packets decapsulated, count"
scalar KFatTreeNew.coreSwitch[0].eth[3].encap decapPk:sum(packetBytes) 154684
attr interpolationmode none
attr source decapPk
attr title "packets decapsulated, sum(packetBytes)"
scalar KFatTreeNew.coreSwitch[0].eth[3].encap encapPk:count 244
attr interpolationmode none
attr source encapPk
attr title "packets encapsulated, count"
scalar KFatTreeNew.coreSwitch[0].eth[3].encap encapPk:sum(packetBytes) 310582
attr interpolationmode none
attr source encapPk
attr title "packets encapsulated, sum(packetBytes)"
scalar KFatTreeNew.coreSwitch[0].ipv4.ip packetDropAddressResolutionFailed:count 0
attr interpolationmode none
attr source packetDropReasonIsAddressResolutionFailed(packetDropped)
attr title "packet drop: address resolution failed, count"
scalar KFatTreeNew.coreSwitch[0].ipv4.ip packetDropAddressResolutionFailed:sum(packetBytes) 0
attr interpolationmode none
attr source packetDropReasonIsAddressResolutionFailed(packetDropped)
attr title "packet drop: address resolution failed, sum(packetBytes)"
scalar KFatTreeNew.coreSwitch[0].ipv4.ip packetDropHopLimitReached:count 0
attr interpolationmode none
attr source packetDropReasonIsHopLimitReached(packetDropped)
attr title "packet drop: hop limit reached, count"
scalar KFatTreeNew.coreSwitch[0].ipv4.ip packetDropHopLimitReached:sum(packetBytes) 0
attr interpolationmode none
attr source packetDropReasonIsHopLimitReached(packetDropped)
attr title "packet drop: hop limit reached, sum(packetBytes)"
scalar KFatTreeNew.coreSwitch[0].ipv4.ip packetDropForwardingDisabled:count 0
attr interpolationmode none
attr source packetDropReasonIsForwardingDisabled(packetDropped)
attr title "packet drop: forwarding disabled, count"
scalar KFatTreeNew.coreSwitch[0].ipv4.ip packetDropForwardingDisabled:sum(packetBytes) 0
attr interpolationmode none
attr source packetDropReasonIsForwardingDisabled(packetDropped)
attr title "packet drop: forwarding disabled, sum(packetBytes)"
scalar KFatTreeNew.coreSwitch[0].ipv4.ip packetDropNoInterfaceFound:count 0
attr interpolationmode none
attr source packetDropReasonIsNoInterfaceFound(packetDropped)
attr title "packet drop: no interface found, count"
scalar KFatTreeNew.coreSwitch[0].ipv4.ip packetDropNoInterfaceFound:sum(packetBytes) 0
attr interpolationmode none
attr source packetDropReasonIsNoInterfaceFound(packetDropped)
attr title "packet drop: no interface found, sum(packetBytes)"
scalar KFatTreeNew.coreSwitch[0].ipv4.ip packetDropNoRouteFound:count 0
attr interpolationmode none
attr source packetDropReasonIsNoRouteFound(packetDropped)
attr title "packet drop: no route found, count"
scalar KFatTreeNew.coreSwitch[0].ipv4.ip packetDropNoRouteFound:sum(packetBytes) 0
attr interpolationmode none
attr source packetDropReasonIsNoRouteFound(packetDropped)
attr title "packet drop: no route found, sum(packetBytes)"
scalar KFatTreeNew.coreSwitch[0].ipv4.ip packetDropUndefined:count 0
attr interpolationmode none
attr source packetDropReasonIsUndefined(packetDropped)
attr title "packet drop: undefined, count"
scalar KFatTreeNew.coreSwitch[0].ipv4.ip packetDropUndefined:sum(packetBytes) 0
attr interpolationmode none
attr source packetDropReasonIsUndefined(packetDropped)
attr title "packet drop: undefined, sum(packetBytes)"
scalar KFatTreeNew.coreSwitch[0].ipv4.arp arpResolutionFailed:count 0
attr title "ARP failed resolutions, count"
scalar KFatTreeNew.coreSwitch[0].ipv4.arp arpResolutionCompleted:count 4
attr title "ARP completed resolutions, count"
scalar KFatTreeNew.coreSwitch[0].ipv4.arp arpResolutionInitiated:count 3
attr title "ARP initiated resolutions, count"
scalar KFatTreeNew.coreSwitch[0].ipv4.arp arpReplySent:count 1
attr source arpReplySent
attr title "ARP replies sent, count"
scalar KFatTreeNew.coreSwitch[0].ipv4.arp arpReplySent:sum(packetBytes) 28
attr source arpReplySent
attr title "ARP replies sent, sum(packetBytes)"
scalar KFatTreeNew.coreSwitch[0].ipv4.arp arpRequestSent:count 3
attr source arpRequestSent
attr title "ARP request sent, count"
scalar KFatTreeNew.coreSwitch[0].ipv4.arp arpRequestSent:sum(packetBytes) 84
attr source arpRequestSent
attr title "ARP request sent, sum(packetBytes)"
scalar KFatTreeNew.coreSwitch[1].lo[0].lo rcvdPkFromHl:count 0
attr interpolationmode none
attr source packetReceivedFromUpper
attr title "packets received from higher layer, count"
scalar KFatTreeNew.coreSwitch[1].lo[0].lo rcvdPkFromHl:sum(packetBytes) 0
attr interpolationmode none
attr source packetReceivedFromUpper
attr title "packets received from higher layer, sum(packetBytes)"
scalar KFatTreeNew.coreSwitch[1].lo[0].lo passedUpPk:count 0
attr interpolationmode none
attr source packetSentToUpper
attr title "packets passed to higher layer, count"
scalar KFatTreeNew.coreSwitch[1].lo[0].lo passedUpPk:sum(packetBytes) 0
attr interpolationmode none
attr source packetSentToUpper
attr title "packets passed to higher layer, sum(packetBytes)"
scalar KFatTreeNew.coreSwitch[1].eth[0].mac.queue packetPopped:count 0
attr interpolationmode none
attr title "packet popped, count"
scalar KFatTreeNew.coreSwitch[1].eth[0].mac.queue packetPopped:sum(packetBytes) 0
attr interpolationmode none
attr title "packet popped, sum(packetBytes)"
statistic KFatTreeNew.coreSwitch[1].eth[0].mac.queue queueingTime:histogram
field count 0
field mean nan
field stddev nan
field min nan
field max nan
field sum 0
field sqrsum 0
attr interpolationmode none
attr source queueingTime(packetPopped)
attr title "queueing times, histogram"
attr unit s
bin	-inf	0
bin	0	0
bin	1	0
scalar KFatTreeNew.coreSwitch[1].eth[0].mac.queue queueLength:max nan
attr interpolationmode sample-hold
attr source "count(packetPushed) - count(packetPopped) - count(packetRemoved) - count(packetDropped)"
attr title "queue length, max"
scalar KFatTreeNew.coreSwitch[1].eth[0].mac.queue queueLength:timeavg nan
attr interpolationmode sample-hold
attr source "count(packetPushed) - count(packetPopped) - count(packetRemoved) - count(packetDropped)"
attr title "queue length, timeavg"
scalar KFatTreeNew.coreSwitch[1].eth[0].mac.queue packetPushed:count 0
attr interpolationmode none
attr title "packet pushed, count"
scalar KFatTreeNew.coreSwitch[1].eth[0].mac.queue packetPushed:sum(packetBytes) 0
attr interpolationmode none
attr title "packet pushed, sum(packetBytes)"
scalar KFatTreeNew.coreSwitch[1].eth[0].mac.queue packetDropQueueOverflow:count 0
attr interpolationmode none
attr source packetDropReasonIsQueueOverflow(packetDropped)
attr title "packet drops: queue overflow, count"
scalar KFatTreeNew.coreSwitch[1].eth[0].mac.queue packetDropQueueOverflow:sum(packetBytes) 0
attr interpolationmode none
attr source packetDropReasonIsQueueOverflow(packetDropped)
attr title "packet drops: queue overflow, sum(packetBytes)"
scalar KFatTreeNew.coreSwitch[1].eth[0].mac.queue packetRemoved:count 0
attr interpolationmode none
attr title "packets removed, count"
scalar KFatTreeNew.coreSwitch[1].eth[0].mac.queue packetRemoved:sum(packetBytes) 0
attr interpolationmode none
attr title "packets removed, sum(packetBytes)"
scalar KFatTreeNew.coreSwitch[1].eth[0].mac "simulated time" 75.00001657856
scalar KFatTreeNew.coreSwitch[1].eth[0].mac full-duplex 1
scalar KFatTreeNew.coreSwitch[1].eth[0].mac "frames/sec sent" 0
scalar KFatTreeNew.coreSwitch[1].eth[0].mac "frames/sec rcvd" 0
scalar KFatTreeNew.coreSwitch[1].eth[0].mac "bits/sec sent" 0
scalar KFatTreeNew.coreSwitch[1].eth[0].mac "bits/sec rcvd" 0
scalar KFatTreeNew.coreSwitch[1].eth[0].mac "rx channel idle (%)" 100
scalar KFatTreeNew.coreSwitch[1].eth[0].mac "rx channel utilization (%)" 0
scalar KFatTreeNew.coreSwitch[1].eth[0].mac rxPausePkUnits:count 0
attr interpolationmode none
attr title "pause units received, count"
scalar KFatTreeNew.coreSwitch[1].eth[0].mac rxPausePkUnits:sum 0
attr interpolationmode none
attr title "pause units received, sum"
scalar KFatTreeNew.coreSwitch[1].eth[0].mac txPausePkUnits:count 0
attr interpolationmode none
attr title "pause units sent, count"
scalar KFatTreeNew.coreSwitch[1].eth[0].mac txPausePkUnits:sum 0
attr interpolationmode none
attr title "pause units sent, sum"
scalar KFatTreeNew.coreSwitch[1].eth[0].mac rxPkOk:count 0
attr interpolationmode none
attr source rxPkOk
attr title "packets received OK, count"
scalar KFatTreeNew.coreSwitch[1].eth[0].mac rxPkOk:sum(packetBytes) 0
attr interpolationmode none
attr source rxPkOk
attr title "packets received OK, sum(packetBytes)"
scalar KFatTreeNew.coreSwitch[1].eth[0].mac txPk:count 0
attr interpolationmode none
attr source packetSentToLower
attr title "packets transmitted, count"
scalar KFatTreeNew.coreSwitch[1].eth[0].mac txPk:sum(packetBytes) 0
attr interpolationmode none
attr source packetSentToLower
attr title "packets transmitted, sum(packetBytes)"
scalar KFatTreeNew.coreSwitch[1].eth[0].mac packetReceivedFromUpper:count 0
attr interpolationmode none
attr source packetReceivedFromUpper
attr title "packet bytes from higher layer, count"
scalar KFatTreeNew.coreSwitch[1].eth[0].mac packetReceivedFromUpper:sum(packetBytes) 0
attr interpolationmode none
attr source packetReceivedFromUpper
attr title "packet bytes from higher layer, sum(packetBytes)"
scalar KFatTreeNew.coreSwitch[1].eth[0].mac passedUpPk:count 0
attr interpolationmode none
attr source packetSentToUpper
attr title "packets passed to higher layer, count"
scalar KFatTreeNew.coreSwitch[1].eth[0].mac passedUpPk:sum(packetBytes) 0
attr interpolationmode none
attr source packetSentToUpper
attr title "packets passed to higher layer, sum(packetBytes)"
scalar KFatTreeNew.coreSwitch[1].eth[0].mac packetDropIncorrectlyReceived:count 0
attr interpolationmode none
attr source packetDropReasonIsIncorrectlyReceived(packetDropped)
attr title "packet drop: incorrectly received, count"
scalar KFatTreeNew.coreSwitch[1].eth[0].mac packetDropIncorrectlyReceived:sum(packetBytes) 0
attr interpolationmode none
attr source packetDropReasonIsIncorrectlyReceived(packetDropped)
attr title "packet drop: incorrectly received, sum(packetBytes)"
scalar KFatTreeNew.coreSwitch[1].eth[0].mac packetDropInterfaceDown:count 0
attr interpolationmode none
attr source packetDropReasonIsInterfaceDown(packetDropped)
attr title "packet drop: interface down, count"
scalar KFatTreeNew.coreSwitch[1].eth[0].mac packetDropInterfaceDown:sum(packetBytes) 0
attr interpolationmode none
attr source packetDropReasonIsInterfaceDown(packetDropped)
attr title "packet drop: interface down, sum(packetBytes)"
scalar KFatTreeNew.coreSwitch[1].eth[0].mac packetDropNotAddressedToUs:count 0
attr interpolationmode none
attr source packetDropReasonIsNotAddressedToUs(packetDropped)
attr title "packet drop: not addressed to us, count"
scalar KFatTreeNew.coreSwitch[1].eth[0].mac packetDropNotAddressedToUs:sum(packetBytes) 0
attr interpolationmode none
attr source packetDropReasonIsNotAddressedToUs(packetDropped)
attr title "packet drop: not addressed to us, sum(packetBytes)"
scalar KFatTreeNew.coreSwitch[1].eth[0].encap pauseSent:count 0
attr title "pause sent, count"
scalar KFatTreeNew.coreSwitch[1].eth[0].encap pauseSent:sum 0
attr title "pause sent, sum"
scalar KFatTreeNew.coreSwitch[1].eth[0].encap decapPk:count 0
attr interpolationmode none
attr source decapPk
attr title "packets decapsulated, count"
scalar KFatTreeNew.coreSwitch[1].eth[0].encap decapPk:sum(packetBytes) 0
attr interpolationmode none
attr source decapPk
attr title "packets decapsulated, sum(packetBytes)"
scalar KFatTreeNew.coreSwitch[1].eth[0].encap encapPk:count 0
attr interpolationmode none
attr source encapPk
attr title "packets encapsulated, count"
scalar KFatTreeNew.coreSwitch[1].eth[0].encap encapPk:sum(packetBytes) 0
attr interpolationmode none
attr source encapPk
attr title "packets encapsulated, sum(packetBytes)"
scalar KFatTreeNew.coreSwitch[1].eth[1].mac.queue packetPopped:count 0
attr interpolationmode none
attr title "packet popped, count"
scalar KFatTreeNew.coreSwitch[1].eth[1].mac.queue packetPopped:sum(packetBytes) 0
attr interpolationmode none
attr title "packet popped, sum(packetBytes)"
statistic KFatTreeNew.coreSwitch[1].eth[1].mac.queue queueingTime:histogram
field count 0
field mean nan
field stddev nan
field min nan
field max nan
field sum 0
field sqrsum 0
attr interpolationmode none
attr source queueingTime(packetPopped)
attr title "queueing times, histogram"
attr unit s
bin	-inf	0
bin	0	0
bin	1	0
scalar KFatTreeNew.coreSwitch[1].eth[1].mac.queue queueLength:max nan
attr interpolationmode sample-hold
attr source "count(packetPushed) - count(packetPopped) - count(packetRemoved) - count(packetDropped)"
attr title "queue length, max"
scalar KFatTreeNew.coreSwitch[1].eth[1].mac.queue queueLength:timeavg nan
attr interpolationmode sample-hold
attr source "count(packetPushed) - count(packetPopped) - count(packetRemoved) - count(packetDropped)"
attr title "queue length, timeavg"
scalar KFatTreeNew.coreSwitch[1].eth[1].mac.queue packetPushed:count 0
attr interpolationmode none
attr title "packet pushed, count"
scalar KFatTreeNew.coreSwitch[1].eth[1].mac.queue packetPushed:sum(packetBytes) 0
attr interpolationmode none
attr title "packet pushed, sum(packetBytes)"
scalar KFatTreeNew.coreSwitch[1].eth[1].mac.queue packetDropQueueOverflow:count 0
attr interpolationmode none
attr source packetDropReasonIsQueueOverflow(packetDropped)
attr title "packet drops: queue overflow, count"
scalar KFatTreeNew.coreSwitch[1].eth[1].mac.queue packetDropQueueOverflow:sum(packetBytes) 0
attr interpolationmode none
attr source packetDropReasonIsQueueOverflow(packetDropped)
attr title "packet drops: queue overflow, sum(packetBytes)"
scalar KFatTreeNew.coreSwitch[1].eth[1].mac.queue packetRemoved:count 0
attr interpolationmode none
attr title "packets removed, count"
scalar KFatTreeNew.coreSwitch[1].eth[1].mac.queue packetRemoved:sum(packetBytes) 0
attr interpolationmode none
attr title "packets removed, sum(packetBytes)"
scalar KFatTreeNew.coreSwitch[1].eth[1].mac "simulated time" 75.00001657856
scalar KFatTreeNew.coreSwitch[1].eth[1].mac full-duplex 1
scalar KFatTreeNew.coreSwitch[1].eth[1].mac "frames/sec sent" 0
scalar KFatTreeNew.coreSwitch[1].eth[1].mac "frames/sec rcvd" 0
scalar KFatTreeNew.coreSwitch[1].eth[1].mac "bits/sec sent" 0
scalar KFatTreeNew.coreSwitch[1].eth[1].mac "bits/sec rcvd" 0
scalar KFatTreeNew.coreSwitch[1].eth[1].mac "rx channel idle (%)" 100
scalar KFatTreeNew.coreSwitch[1].eth[1].mac "rx channel utilization (%)" 0
scalar KFatTreeNew.coreSwitch[1].eth[1].mac rxPausePkUnits:count 0
attr interpolationmode none
attr title "pause units received, count"
scalar KFatTreeNew.coreSwitch[1].eth[1].mac rxPausePkUnits:sum 0
attr interpolationmode none
attr title "pause units received, sum"
scalar KFatTreeNew.coreSwitch[1].eth[1].mac txPausePkUnits:count 0
attr interpolationmode none
attr title "pause units sent, count"
scalar KFatTreeNew.coreSwitch[1].eth[1].mac txPausePkUnits:sum 0
attr interpolationmode none
attr title "pause units sent, sum"
scalar KFatTreeNew.coreSwitch[1].eth[1].mac rxPkOk:count 0
attr interpolationmode none
attr source rxPkOk
attr title "packets received OK, count"
scalar KFatTreeNew.coreSwitch[1].eth[1].mac rxPkOk:sum(packetBytes) 0
attr interpolationmode none
attr source rxPkOk
attr title "packets received OK, sum(packetBytes)"
scalar KFatTreeNew.coreSwitch[1].eth[1].mac txPk:count 0
attr interpolationmode none
attr source packetSentToLower
attr title "packets transmitted, count"
scalar KFatTreeNew.coreSwitch[1].eth[1].mac txPk:sum(packetBytes) 0
attr interpolationmode none
attr source packetSentToLower
attr title "packets transmitted, sum(packetBytes)"
scalar KFatTreeNew.coreSwitch[1].eth[1].mac packetReceivedFromUpper:count 0
attr interpolationmode none
attr source packetReceivedFromUpper
attr title "packet bytes from higher layer, count"
scalar KFatTreeNew.coreSwitch[1].eth[1].mac packetReceivedFromUpper:sum(packetBytes) 0
attr interpolationmode none
attr source packetReceivedFromUpper
attr title "packet bytes from higher layer, sum(packetBytes)"
scalar KFatTreeNew.coreSwitch[1].eth[1].mac passedUpPk:count 0
attr interpolationmode none
attr source packetSentToUpper
attr title "packets passed to higher layer, count"
scalar KFatTreeNew.coreSwitch[1].eth[1].mac passedUpPk:sum(packetBytes) 0
attr interpolationmode none
attr source packetSentToUpper
attr title "packets passed to higher layer, sum(packetBytes)"
scalar KFatTreeNew.coreSwitch[1].eth[1].mac packetDropIncorrectlyReceived:count 0
attr interpolationmode none
attr source packetDropReasonIsIncorrectlyReceived(packetDropped)
attr title "packet drop: incorrectly received, count"
scalar KFatTreeNew.coreSwitch[1].eth[1].mac packetDropIncorrectlyReceived:sum(packetBytes) 0
attr interpolationmode none
attr source packetDropReasonIsIncorrectlyReceived(packetDropped)
attr title "packet drop: incorrectly received, sum(packetBytes)"
scalar KFatTreeNew.coreSwitch[1].eth[1].mac packetDropInterfaceDown:count 0
attr interpolationmode none
attr source packetDropReasonIsInterfaceDown(packetDropped)
attr title "packet drop: interface down, count"
scalar KFatTreeNew.coreSwitch[1].eth[1].mac packetDropInterfaceDown:sum(packetBytes) 0
attr interpolationmode none
attr source packetDropReasonIsInterfaceDown(packetDropped)
attr title "packet drop: interface down, sum(packetBytes)"
scalar KFatTreeNew.coreSwitch[1].eth[1].mac packetDropNotAddressedToUs:count 0
attr interpolationmode none
attr source packetDropReasonIsNotAddressedToUs(packetDropped)
attr title "packet drop: not addressed to us, count"
scalar KFatTreeNew.coreSwitch[1].eth[1].mac packetDropNotAddressedToUs:sum(packetBytes) 0
attr interpolationmode none
attr source packetDropReasonIsNotAddressedToUs(packetDropped)
attr title "packet drop: not addressed to us, sum(packetBytes)"
scalar KFatTreeNew.coreSwitch[1].eth[1].encap pauseSent:count 0
attr title "pause sent, count"
scalar KFatTreeNew.coreSwitch[1].eth[1].encap pauseSent:sum 0
attr title "pause sent, sum"
scalar KFatTreeNew.coreSwitch[1].eth[1].encap decapPk:count 0
attr interpolationmode none
attr source decapPk
attr title "packets decapsulated, count"
scalar KFatTreeNew.coreSwitch[1].eth[1].encap decapPk:sum(packetBytes) 0
attr interpolationmode none
attr source decapPk
attr title "packets decapsulated, sum(packetBytes)"
scalar KFatTreeNew.coreSwitch[1].eth[1].encap encapPk:count 0
attr interpolationmode none
attr source encapPk
attr title "packets encapsulated, count"
scalar KFatTreeNew.coreSwitch[1].eth[1].encap encapPk:sum(packetBytes) 0
attr interpolationmode none
attr source encapPk
attr title "packets encapsulated, sum(packetBytes)"
scalar KFatTreeNew.coreSwitch[1].eth[2].mac.queue packetPopped:count 0
attr interpolationmode none
attr title "packet popped, count"
scalar KFatTreeNew.coreSwitch[1].eth[2].mac.queue packetPopped:sum(packetBytes) 0
attr interpolationmode none
attr title "packet popped, sum(packetBytes)"
statistic KFatTreeNew.coreSwitch[1].eth[2].mac.queue queueingTime:histogram
field count 0
field mean nan
field stddev nan
field min nan
field max nan
field sum 0
field sqrsum 0
attr interpolationmode none
attr source queueingTime(packetPopped)
attr title "queueing times, histogram"
attr unit s
bin	-inf	0
bin	0	0
bin	1	0
scalar KFatTreeNew.coreSwitch[1].eth[2].mac.queue queueLength:max nan
attr interpolationmode sample-hold
attr source "count(packetPushed) - count(packetPopped) - count(packetRemoved) - count(packetDropped)"
attr title "queue length, max"
scalar KFatTreeNew.coreSwitch[1].eth[2].mac.queue queueLength:timeavg nan
attr interpolationmode sample-hold
attr source "count(packetPushed) - count(packetPopped) - count(packetRemoved) - count(packetDropped)"
attr title "queue length, timeavg"
scalar KFatTreeNew.coreSwitch[1].eth[2].mac.queue packetPushed:count 0
attr interpolationmode none
attr title "packet pushed, count"
scalar KFatTreeNew.coreSwitch[1].eth[2].mac.queue packetPushed:sum(packetBytes) 0
attr interpolationmode none
attr title "packet pushed, sum(packetBytes)"
scalar KFatTreeNew.coreSwitch[1].eth[2].mac.queue packetDropQueueOverflow:count 0
attr interpolationmode none
attr source packetDropReasonIsQueueOverflow(packetDropped)
attr title "packet drops: queue overflow, count"
scalar KFatTreeNew.coreSwitch[1].eth[2].mac.queue packetDropQueueOverflow:sum(packetBytes) 0
attr interpolationmode none
attr source packetDropReasonIsQueueOverflow(packetDropped)
attr title "packet drops: queue overflow, sum(packetBytes)"
scalar KFatTreeNew.coreSwitch[1].eth[2].mac.queue packetRemoved:count 0
attr interpolationmode none
attr title "packets removed, count"
scalar KFatTreeNew.coreSwitch[1].eth[2].mac.queue packetRemoved:sum(packetBytes) 0
attr interpolationmode none
attr title "packets removed, sum(packetBytes)"
scalar KFatTreeNew.coreSwitch[1].eth[2].mac "simulated time" 75.00001657856
scalar KFatTreeNew.coreSwitch[1].eth[2].mac full-duplex 1
scalar KFatTreeNew.coreSwitch[1].eth[2].mac "frames/sec sent" 0
scalar KFatTreeNew.coreSwitch[1].eth[2].mac "frames/sec rcvd" 0
scalar KFatTreeNew.coreSwitch[1].eth[2].mac "bits/sec sent" 0
scalar KFatTreeNew.coreSwitch[1].eth[2].mac "bits/sec rcvd" 0
scalar KFatTreeNew.coreSwitch[1].eth[2].mac "rx channel idle (%)" 100
scalar KFatTreeNew.coreSwitch[1].eth[2].mac "rx channel utilization (%)" 0
scalar KFatTreeNew.coreSwitch[1].eth[2].mac rxPausePkUnits:count 0
attr interpolationmode none
attr title "pause units received, count"
scalar KFatTreeNew.coreSwitch[1].eth[2].mac rxPausePkUnits:sum 0
attr interpolationmode none
attr title "pause units received, sum"
scalar KFatTreeNew.coreSwitch[1].eth[2].mac txPausePkUnits:count 0
attr interpolationmode none
attr title "pause units sent, count"
scalar KFatTreeNew.coreSwitch[1].eth[2].mac txPausePkUnits:sum 0
attr interpolationmode none
attr title "pause units sent, sum"
scalar KFatTreeNew.coreSwitch[1].eth[2].mac rxPkOk:count 0
attr interpolationmode none
attr source rxPkOk
attr title "packets received OK, count"
scalar KFatTreeNew.coreSwitch[1].eth[2].mac rxPkOk:sum(packetBytes) 0
attr interpolationmode none
attr source rxPkOk
attr title "packets received OK, sum(packetBytes)"
scalar KFatTreeNew.coreSwitch[1].eth[2].mac txPk:count 0
attr interpolationmode none
attr source packetSentToLower
attr title "packets transmitted, count"
scalar KFatTreeNew.coreSwitch[1].eth[2].mac txPk:sum(packetBytes) 0
attr interpolationmode none
attr source packetSentToLower
attr title "packets transmitted, sum(packetBytes)"
scalar KFatTreeNew.coreSwitch[1].eth[2].mac packetReceivedFromUpper:count 0
attr interpolationmode none
attr source packetReceivedFromUpper
attr title "packet bytes from higher layer, count"
scalar KFatTreeNew.coreSwitch[1].eth[2].mac packetReceivedFromUpper:sum(packetBytes) 0
attr interpolationmode none
attr source packetReceivedFromUpper
attr title "packet bytes from higher layer, sum(packetBytes)"
scalar KFatTreeNew.coreSwitch[1].eth[2].mac passedUpPk:count 0
attr interpolationmode none
attr source packetSentToUpper
attr title "packets passed to higher layer, count"
scalar KFatTreeNew.coreSwitch[1].eth[2].mac passedUpPk:sum(packetBytes) 0
attr interpolationmode none
attr source packetSentToUpper
attr title "packets passed to higher layer, sum(packetBytes)"
scalar KFatTreeNew.coreSwitch[1].eth[2].mac packetDropIncorrectlyReceived:count 0
attr interpolationmode none
attr source packetDropReasonIsIncorrectlyReceived(packetDropped)
attr title "packet drop: incorrectly received, count"
scalar KFatTreeNew.coreSwitch[1].eth[2].mac packetDropIncorrectlyReceived:sum(packetBytes) 0
attr interpolationmode none
attr source packetDropReasonIsIncorrectlyReceived(packetDropped)
attr title "packet drop: incorrectly received, sum(packetBytes)"
scalar KFatTreeNew.coreSwitch[1].eth[2].mac packetDropInterfaceDown:count 0
attr interpolationmode none
attr source packetDropReasonIsInterfaceDown(packetDropped)
attr title "packet drop: interface down, count"
scalar KFatTreeNew.coreSwitch[1].eth[2].mac packetDropInterfaceDown:sum(packetBytes) 0
attr interpolationmode none
attr source packetDropReasonIsInterfaceDown(packetDropped)
attr title "packet drop: interface down, sum(packetBytes)"
scalar KFatTreeNew.coreSwitch[1].eth[2].mac packetDropNotAddressedToUs:count 0
attr interpolationmode none
attr source packetDropReasonIsNotAddressedToUs(packetDropped)
attr title "packet drop: not addressed to us, count"
scalar KFatTreeNew.coreSwitch[1].eth[2].mac packetDropNotAddressedToUs:sum(packetBytes) 0
attr interpolationmode none
attr source packetDropReasonIsNotAddressedToUs(packetDropped)
attr title "packet drop: not addressed to us, sum(packetBytes)"
scalar KFatTreeNew.coreSwitch[1].eth[2].encap pauseSent:count 0
attr title "pause sent, count"
scalar KFatTreeNew.coreSwitch[1].eth[2].encap pauseSent:sum 0
attr title "pause sent, sum"
scalar KFatTreeNew.coreSwitch[1].eth[2].encap decapPk:count 0
attr interpolationmode none
attr source decapPk
attr title "packets decapsulated, count"
scalar KFatTreeNew.coreSwitch[1].eth[2].encap decapPk:sum(packetBytes) 0
attr interpolationmode none
attr source decapPk
attr title "packets decapsulated, sum(packetBytes)"
scalar KFatTreeNew.coreSwitch[1].eth[2].encap encapPk:count 0
attr interpolationmode none
attr source encapPk
attr title "packets encapsulated, count"
scalar KFatTreeNew.coreSwitch[1].eth[2].encap encapPk:sum(packetBytes) 0
attr interpolationmode none
attr source encapPk
attr title "packets encapsulated, sum(packetBytes)"
scalar KFatTreeNew.coreSwitch[1].eth[3].mac.queue packetPopped:count 0
attr interpolationmode none
attr title "packet popped, count"
scalar KFatTreeNew.coreSwitch[1].eth[3].mac.queue packetPopped:sum(packetBytes) 0
attr interpolationmode none
attr title "packet popped, sum(packetBytes)"
statistic KFatTreeNew.coreSwitch[1].eth[3].mac.queue queueingTime:histogram
field count 0
field mean nan
field stddev nan
field min nan
field max nan
field sum 0
field sqrsum 0
attr interpolationmode none
attr source queueingTime(packetPopped)
attr title "queueing times, histogram"
attr unit s
bin	-inf	0
bin	0	0
bin	1	0
scalar KFatTreeNew.coreSwitch[1].eth[3].mac.queue queueLength:max nan
attr interpolationmode sample-hold
attr source "count(packetPushed) - count(packetPopped) - count(packetRemoved) - count(packetDropped)"
attr title "queue length, max"
scalar KFatTreeNew.coreSwitch[1].eth[3].mac.queue queueLength:timeavg nan
attr interpolationmode sample-hold
attr source "count(packetPushed) - count(packetPopped) - count(packetRemoved) - count(packetDropped)"
attr title "queue length, timeavg"
scalar KFatTreeNew.coreSwitch[1].eth[3].mac.queue packetPushed:count 0
attr interpolationmode none
attr title "packet pushed, count"
scalar KFatTreeNew.coreSwitch[1].eth[3].mac.queue packetPushed:sum(packetBytes) 0
attr interpolationmode none
attr title "packet pushed, sum(packetBytes)"
scalar KFatTreeNew.coreSwitch[1].eth[3].mac.queue packetDropQueueOverflow:count 0
attr interpolationmode none
attr source packetDropReasonIsQueueOverflow(packetDropped)
attr title "packet drops: queue overflow, count"
scalar KFatTreeNew.coreSwitch[1].eth[3].mac.queue packetDropQueueOverflow:sum(packetBytes) 0
attr interpolationmode none
attr source packetDropReasonIsQueueOverflow(packetDropped)
attr title "packet drops: queue overflow, sum(packetBytes)"
scalar KFatTreeNew.coreSwitch[1].eth[3].mac.queue packetRemoved:count 0
attr interpolationmode none
attr title "packets removed, count"
scalar KFatTreeNew.coreSwitch[1].eth[3].mac.queue packetRemoved:sum(packetBytes) 0
attr interpolationmode none
attr title "packets removed, sum(packetBytes)"
scalar KFatTreeNew.coreSwitch[1].eth[3].mac "simulated time" 75.00001657856
scalar KFatTreeNew.coreSwitch[1].eth[3].mac full-duplex 1
scalar KFatTreeNew.coreSwitch[1].eth[3].mac "frames/sec sent" 0
scalar KFatTreeNew.coreSwitch[1].eth[3].mac "frames/sec rcvd" 0
scalar KFatTreeNew.coreSwitch[1].eth[3].mac "bits/sec sent" 0
scalar KFatTreeNew.coreSwitch[1].eth[3].mac "bits/sec rcvd" 0
scalar KFatTreeNew.coreSwitch[1].eth[3].mac "rx channel idle (%)" 100
scalar KFatTreeNew.coreSwitch[1].eth[3].mac "rx channel utilization (%)" 0
scalar KFatTreeNew.coreSwitch[1].eth[3].mac rxPausePkUnits:count 0
attr interpolationmode none
attr title "pause units received, count"
scalar KFatTreeNew.coreSwitch[1].eth[3].mac rxPausePkUnits:sum 0
attr interpolationmode none
attr title "pause units received, sum"
scalar KFatTreeNew.coreSwitch[1].eth[3].mac txPausePkUnits:count 0
attr interpolationmode none
attr title "pause units sent, count"
scalar KFatTreeNew.coreSwitch[1].eth[3].mac txPausePkUnits:sum 0
attr interpolationmode none
attr title "pause units sent, sum"
scalar KFatTreeNew.coreSwitch[1].eth[3].mac rxPkOk:count 0
attr interpolationmode none
attr source rxPkOk
attr title "packets received OK, count"
scalar KFatTreeNew.coreSwitch[1].eth[3].mac rxPkOk:sum(packetBytes) 0
attr interpolationmode none
attr source rxPkOk
attr title "packets received OK, sum(packetBytes)"
scalar KFatTreeNew.coreSwitch[1].eth[3].mac txPk:count 0
attr interpolationmode none
attr source packetSentToLower
attr title "packets transmitted, count"
scalar KFatTreeNew.coreSwitch[1].eth[3].mac txPk:sum(packetBytes) 0
attr interpolationmode none
attr source packetSentToLower
attr title "packets transmitted, sum(packetBytes)"
scalar KFatTreeNew.coreSwitch[1].eth[3].mac packetReceivedFromUpper:count 0
attr interpolationmode none
attr source packetReceivedFromUpper
attr title "packet bytes from higher layer, count"
scalar KFatTreeNew.coreSwitch[1].eth[3].mac packetReceivedFromUpper:sum(packetBytes) 0
attr interpolationmode none
attr source packetReceivedFromUpper
attr title "packet bytes from higher layer, sum(packetBytes)"
scalar KFatTreeNew.coreSwitch[1].eth[3].mac passedUpPk:count 0
attr interpolationmode none
attr source packetSentToUpper
attr title "packets passed to higher layer, count"
scalar KFatTreeNew.coreSwitch[1].eth[3].mac passedUpPk:sum(packetBytes) 0
attr interpolationmode none
attr source packetSentToUpper
attr title "packets passed to higher layer, sum(packetBytes)"
scalar KFatTreeNew.coreSwitch[1].eth[3].mac packetDropIncorrectlyReceived:count 0
attr interpolationmode none
attr source packetDropReasonIsIncorrectlyReceived(packetDropped)
attr title "packet drop: incorrectly received, count"
scalar KFatTreeNew.coreSwitch[1].eth[3].mac packetDropIncorrectlyReceived:sum(packetBytes) 0
attr interpolationmode none
attr source packetDropReasonIsIncorrectlyReceived(packetDropped)
attr title "packet drop: incorrectly received, sum(packetBytes)"
scalar KFatTreeNew.coreSwitch[1].eth[3].mac packetDropInterfaceDown:count 0
attr interpolationmode none
attr source packetDropReasonIsInterfaceDown(packetDropped)
attr title "packet drop: interface down, count"
scalar KFatTreeNew.coreSwitch[1].eth[3].mac packetDropInterfaceDown:sum(packetBytes) 0
attr interpolationmode none
attr source packetDropReasonIsInterfaceDown(packetDropped)
attr title "packet drop: interface down, sum(packetBytes)"
scalar KFatTreeNew.coreSwitch[1].eth[3].mac packetDropNotAddressedToUs:count 0
attr interpolationmode none
attr source packetDropReasonIsNotAddressedToUs(packetDropped)
attr title "packet drop: not addressed to us, count"
scalar KFatTreeNew.coreSwitch[1].eth[3].mac packetDropNotAddressedToUs:sum(packetBytes) 0
attr interpolationmode none
attr source packetDropReasonIsNotAddressedToUs(packetDropped)
attr title "packet drop: not addressed to us, sum(packetBytes)"
scalar KFatTreeNew.coreSwitch[1].eth[3].encap pauseSent:count 0
attr title "pause sent, count"
scalar KFatTreeNew.coreSwitch[1].eth[3].encap pauseSent:sum 0
attr title "pause sent, sum"
scalar KFatTreeNew.coreSwitch[1].eth[3].encap decapPk:count 0
attr interpolationmode none
attr source decapPk
attr title "packets decapsulated, count"
scalar KFatTreeNew.coreSwitch[1].eth[3].encap decapPk:sum(packetBytes) 0
attr interpolationmode none
attr source decapPk
attr title "packets decapsulated, sum(packetBytes)"
scalar KFatTreeNew.coreSwitch[1].eth[3].encap encapPk:count 0
attr interpolationmode none
attr source encapPk
attr title "packets encapsulated, count"
scalar KFatTreeNew.coreSwitch[1].eth[3].encap encapPk:sum(packetBytes) 0
attr interpolationmode none
attr source encapPk
attr title "packets encapsulated, sum(packetBytes)"
scalar KFatTreeNew.coreSwitch[1].ipv4.ip packetDropAddressResolutionFailed:count 0
attr interpolationmode none
attr source packetDropReasonIsAddressResolutionFailed(packetDropped)
attr title "packet drop: address resolution failed, count"
scalar KFatTreeNew.coreSwitch[1].ipv4.ip packetDropAddressResolutionFailed:sum(packetBytes) 0
attr interpolationmode none
attr source packetDropReasonIsAddressResolutionFailed(packetDropped)
attr title "packet drop: address resolution failed, sum(packetBytes)"
scalar KFatTreeNew.coreSwitch[1].ipv4.ip packetDropHopLimitReached:count 0
attr interpolationmode none
attr source packetDropReasonIsHopLimitReached(packetDropped)
attr title "packet drop: hop limit reached, count"
scalar KFatTreeNew.coreSwitch[1].ipv4.ip packetDropHopLimitReached:sum(packetBytes) 0
attr interpolationmode none
attr source packetDropReasonIsHopLimitReached(packetDropped)
attr title "packet drop: hop limit reached, sum(packetBytes)"
scalar KFatTreeNew.coreSwitch[1].ipv4.ip packetDropForwardingDisabled:count 0
attr interpolationmode none
attr source packetDropReasonIsForwardingDisabled(packetDropped)
attr title "packet drop: forwarding disabled, count"
scalar KFatTreeNew.coreSwitch[1].ipv4.ip packetDropForwardingDisabled:sum(packetBytes) 0
attr interpolationmode none
attr source packetDropReasonIsForwardingDisabled(packetDropped)
attr title "packet drop: forwarding disabled, sum(packetBytes)"
scalar KFatTreeNew.coreSwitch[1].ipv4.ip packetDropNoInterfaceFound:count 0
attr interpolationmode none
attr source packetDropReasonIsNoInterfaceFound(packetDropped)
attr title "packet drop: no interface found, count"
scalar KFatTreeNew.coreSwitch[1].ipv4.ip packetDropNoInterfaceFound:sum(packetBytes) 0
attr interpolationmode none
attr source packetDropReasonIsNoInterfaceFound(packetDropped)
attr title "packet drop: no interface found, sum(packetBytes)"
scalar KFatTreeNew.coreSwitch[1].ipv4.ip packetDropNoRouteFound:count 0
attr interpolationmode none
attr source packetDropReasonIsNoRouteFound(packetDropped)
attr title "packet drop: no route found, count"
scalar KFatTreeNew.coreSwitch[1].ipv4.ip packetDropNoRouteFound:sum(packetBytes) 0
attr interpolationmode none
attr source packetDropReasonIsNoRouteFound(packetDropped)
attr title "packet drop: no route found, sum(packetBytes)"
scalar KFatTreeNew.coreSwitch[1].ipv4.ip packetDropUndefined:count 0
attr interpolationmode none
attr source packetDropReasonIsUndefined(packetDropped)
attr title "packet drop: undefined, count"
scalar KFatTreeNew.coreSwitch[1].ipv4.ip packetDropUndefined:sum(packetBytes) 0
attr interpolationmode none
attr source packetDropReasonIsUndefined(packetDropped)
attr title "packet drop: undefined, sum(packetBytes)"
scalar KFatTreeNew.coreSwitch[1].ipv4.arp arpResolutionFailed:count 0
attr title "ARP failed resolutions, count"
scalar KFatTreeNew.coreSwitch[1].ipv4.arp arpResolutionCompleted:count 0
attr title "ARP completed resolutions, count"
scalar KFatTreeNew.coreSwitch[1].ipv4.arp arpResolutionInitiated:count 0
attr title "ARP initiated resolutions, count"
scalar KFatTreeNew.coreSwitch[1].ipv4.arp arpReplySent:count 0
attr source arpReplySent
attr title "ARP replies sent, count"
scalar KFatTreeNew.coreSwitch[1].ipv4.arp arpReplySent:sum(packetBytes) 0
attr source arpReplySent
attr title "ARP replies sent, sum(packetBytes)"
scalar KFatTreeNew.coreSwitch[1].ipv4.arp arpRequestSent:count 0
attr source arpRequestSent
attr title "ARP request sent, count"
scalar KFatTreeNew.coreSwitch[1].ipv4.arp arpRequestSent:sum(packetBytes) 0
attr source arpRequestSent
attr title "ARP request sent, sum(packetBytes)"
scalar KFatTreeNew.coreSwitch[2].lo[0].lo rcvdPkFromHl:count 0
attr interpolationmode none
attr source packetReceivedFromUpper
attr title "packets received from higher layer, count"
scalar KFatTreeNew.coreSwitch[2].lo[0].lo rcvdPkFromHl:sum(packetBytes) 0
attr interpolationmode none
attr source packetReceivedFromUpper
attr title "packets received from higher layer, sum(packetBytes)"
scalar KFatTreeNew.coreSwitch[2].lo[0].lo passedUpPk:count 0
attr interpolationmode none
attr source packetSentToUpper
attr title "packets passed to higher layer, count"
scalar KFatTreeNew.coreSwitch[2].lo[0].lo passedUpPk:sum(packetBytes) 0
attr interpolationmode none
attr source packetSentToUpper
attr title "packets passed to higher layer, sum(packetBytes)"
scalar KFatTreeNew.coreSwitch[2].eth[0].mac.queue packetPopped:count 0
attr interpolationmode none
attr title "packet popped, count"
scalar KFatTreeNew.coreSwitch[2].eth[0].mac.queue packetPopped:sum(packetBytes) 0
attr interpolationmode none
attr title "packet popped, sum(packetBytes)"
statistic KFatTreeNew.coreSwitch[2].eth[0].mac.queue queueingTime:histogram
field count 0
field mean nan
field stddev nan
field min nan
field max nan
field sum 0
field sqrsum 0
attr interpolationmode none
attr source queueingTime(packetPopped)
attr title "queueing times, histogram"
attr unit s
bin	-inf	0
bin	0	0
bin	1	0
scalar KFatTreeNew.coreSwitch[2].eth[0].mac.queue queueLength:max nan
attr interpolationmode sample-hold
attr source "count(packetPushed) - count(packetPopped) - count(packetRemoved) - count(packetDropped)"
attr title "queue length, max"
scalar KFatTreeNew.coreSwitch[2].eth[0].mac.queue queueLength:timeavg nan
attr interpolationmode sample-hold
attr source "count(packetPushed) - count(packetPopped) - count(packetRemoved) - count(packetDropped)"
attr title "queue length, timeavg"
scalar KFatTreeNew.coreSwitch[2].eth[0].mac.queue packetPushed:count 0
attr interpolationmode none
attr title "packet pushed, count"
scalar KFatTreeNew.coreSwitch[2].eth[0].mac.queue packetPushed:sum(packetBytes) 0
attr interpolationmode none
attr title "packet pushed, sum(packetBytes)"
scalar KFatTreeNew.coreSwitch[2].eth[0].mac.queue packetDropQueueOverflow:count 0
attr interpolationmode none
attr source packetDropReasonIsQueueOverflow(packetDropped)
attr title "packet drops: queue overflow, count"
scalar KFatTreeNew.coreSwitch[2].eth[0].mac.queue packetDropQueueOverflow:sum(packetBytes) 0
attr interpolationmode none
attr source packetDropReasonIsQueueOverflow(packetDropped)
attr title "packet drops: queue overflow, sum(packetBytes)"
scalar KFatTreeNew.coreSwitch[2].eth[0].mac.queue packetRemoved:count 0
attr interpolationmode none
attr title "packets removed, count"
scalar KFatTreeNew.coreSwitch[2].eth[0].mac.queue packetRemoved:sum(packetBytes) 0
attr interpolationmode none
attr title "packets removed, sum(packetBytes)"
scalar KFatTreeNew.coreSwitch[2].eth[0].mac "simulated time" 75.00001657856
scalar KFatTreeNew.coreSwitch[2].eth[0].mac full-duplex 1
scalar KFatTreeNew.coreSwitch[2].eth[0].mac "frames/sec sent" 0
scalar KFatTreeNew.coreSwitch[2].eth[0].mac "frames/sec rcvd" 0
scalar KFatTreeNew.coreSwitch[2].eth[0].mac "bits/sec sent" 0
scalar KFatTreeNew.coreSwitch[2].eth[0].mac "bits/sec rcvd" 0
scalar KFatTreeNew.coreSwitch[2].eth[0].mac "rx channel idle (%)" 100
scalar KFatTreeNew.coreSwitch[2].eth[0].mac "rx channel utilization (%)" 0
scalar KFatTreeNew.coreSwitch[2].eth[0].mac rxPausePkUnits:count 0
attr interpolationmode none
attr title "pause units received, count"
scalar KFatTreeNew.coreSwitch[2].eth[0].mac rxPausePkUnits:sum 0
attr interpolationmode none
attr title "pause units received, sum"
scalar KFatTreeNew.coreSwitch[2].eth[0].mac txPausePkUnits:count 0
attr interpolationmode none
attr title "pause units sent, count"
scalar KFatTreeNew.coreSwitch[2].eth[0].mac txPausePkUnits:sum 0
attr interpolationmode none
attr title "pause units sent, sum"
scalar KFatTreeNew.coreSwitch[2].eth[0].mac rxPkOk:count 0
attr interpolationmode none
attr source rxPkOk
attr title "packets received OK, count"
scalar KFatTreeNew.coreSwitch[2].eth[0].mac rxPkOk:sum(packetBytes) 0
attr interpolationmode none
attr source rxPkOk
attr title "packets received OK, sum(packetBytes)"
scalar KFatTreeNew.coreSwitch[2].eth[0].mac txPk:count 0
attr interpolationmode none
attr source packetSentToLower
attr title "packets transmitted, count"
scalar KFatTreeNew.coreSwitch[2].eth[0].mac txPk:sum(packetBytes) 0
attr interpolationmode none
attr source packetSentToLower
attr title "packets transmitted, sum(packetBytes)"
scalar KFatTreeNew.coreSwitch[2].eth[0].mac packetReceivedFromUpper:count 0
attr interpolationmode none
attr source packetReceivedFromUpper
attr title "packet bytes from higher layer, count"
scalar KFatTreeNew.coreSwitch[2].eth[0].mac packetReceivedFromUpper:sum(packetBytes) 0
attr interpolationmode none
attr source packetReceivedFromUpper
attr title "packet bytes from higher layer, sum(packetBytes)"
scalar KFatTreeNew.coreSwitch[2].eth[0].mac passedUpPk:count 0
attr interpolationmode none
attr source packetSentToUpper
attr title "packets passed to higher layer, count"
scalar KFatTreeNew.coreSwitch[2].eth[0].mac passedUpPk:sum(packetBytes) 0
attr interpolationmode none
attr source packetSentToUpper
attr title "packets passed to higher layer, sum(packetBytes)"
scalar KFatTreeNew.coreSwitch[2].eth[0].mac packetDropIncorrectlyReceived:count 0
attr interpolationmode none
attr source packetDropReasonIsIncorrectlyReceived(packetDropped)
attr title "packet drop: incorrectly received, count"
scalar KFatTreeNew.coreSwitch[2].eth[0].mac packetDropIncorrectlyReceived:sum(packetBytes) 0
attr interpolationmode none
attr source packetDropReasonIsIncorrectlyReceived(packetDropped)
attr title "packet drop: incorrectly received, sum(packetBytes)"
scalar KFatTreeNew.coreSwitch[2].eth[0].mac packetDropInterfaceDown:count 0
attr interpolationmode none
attr source packetDropReasonIsInterfaceDown(packetDropped)
attr title "packet drop: interface down, count"
scalar KFatTreeNew.coreSwitch[2].eth[0].mac packetDropInterfaceDown:sum(packetBytes) 0
attr interpolationmode none
attr source packetDropReasonIsInterfaceDown(packetDropped)
attr title "packet drop: interface down, sum(packetBytes)"
scalar KFatTreeNew.coreSwitch[2].eth[0].mac packetDropNotAddressedToUs:count 0
attr interpolationmode none
attr source packetDropReasonIsNotAddressedToUs(packetDropped)
attr title "packet drop: not addressed to us, count"
scalar KFatTreeNew.coreSwitch[2].eth[0].mac packetDropNotAddressedToUs:sum(packetBytes) 0
attr interpolationmode none
attr source packetDropReasonIsNotAddressedToUs(packetDropped)
attr title "packet drop: not addressed to us, sum(packetBytes)"
scalar KFatTreeNew.coreSwitch[2].eth[0].encap pauseSent:count 0
attr title "pause sent, count"
scalar KFatTreeNew.coreSwitch[2].eth[0].encap pauseSent:sum 0
attr title "pause sent, sum"
scalar KFatTreeNew.coreSwitch[2].eth[0].encap decapPk:count 0
attr interpolationmode none
attr source decapPk
attr title "packets decapsulated, count"
scalar KFatTreeNew.coreSwitch[2].eth[0].encap decapPk:sum(packetBytes) 0
attr interpolationmode none
attr source decapPk
attr title "packets decapsulated, sum(packetBytes)"
scalar KFatTreeNew.coreSwitch[2].eth[0].encap encapPk:count 0
attr interpolationmode none
attr source encapPk
attr title "packets encapsulated, count"
scalar KFatTreeNew.coreSwitch[2].eth[0].encap encapPk:sum(packetBytes) 0
attr interpolationmode none
attr source encapPk
attr title "packets encapsulated, sum(packetBytes)"
scalar KFatTreeNew.coreSwitch[2].eth[1].mac.queue packetPopped:count 0
attr interpolationmode none
attr title "packet popped, count"
scalar KFatTreeNew.coreSwitch[2].eth[1].mac.queue packetPopped:sum(packetBytes) 0
attr interpolationmode none
attr title "packet popped, sum(packetBytes)"
statistic KFatTreeNew.coreSwitch[2].eth[1].mac.queue queueingTime:histogram
field count 0
field mean nan
field stddev nan
field min nan
field max nan
field sum 0
field sqrsum 0
attr interpolationmode none
attr source queueingTime(packetPopped)
attr title "queueing times, histogram"
attr unit s
bin	-inf	0
bin	0	0
bin	1	0
scalar KFatTreeNew.coreSwitch[2].eth[1].mac.queue queueLength:max nan
attr interpolationmode sample-hold
attr source "count(packetPushed) - count(packetPopped) - count(packetRemoved) - count(packetDropped)"
attr title "queue length, max"
scalar KFatTreeNew.coreSwitch[2].eth[1].mac.queue queueLength:timeavg nan
attr interpolationmode sample-hold
attr source "count(packetPushed) - count(packetPopped) - count(packetRemoved) - count(packetDropped)"
attr title "queue length, timeavg"
scalar KFatTreeNew.coreSwitch[2].eth[1].mac.queue packetPushed:count 0
attr interpolationmode none
attr title "packet pushed, count"
scalar KFatTreeNew.coreSwitch[2].eth[1].mac.queue packetPushed:sum(packetBytes) 0
attr interpolationmode none
attr title "packet pushed, sum(packetBytes)"
scalar KFatTreeNew.coreSwitch[2].eth[1].mac.queue packetDropQueueOverflow:count 0
attr interpolationmode none
attr source packetDropReasonIsQueueOverflow(packetDropped)
attr title "packet drops: queue overflow, count"
scalar KFatTreeNew.coreSwitch[2].eth[1].mac.queue packetDropQueueOverflow:sum(packetBytes) 0
attr interpolationmode none
attr source packetDropReasonIsQueueOverflow(packetDropped)
attr title "packet drops: queue overflow, sum(packetBytes)"
scalar KFatTreeNew.coreSwitch[2].eth[1].mac.queue packetRemoved:count 0
attr interpolationmode none
attr title "packets removed, count"
scalar KFatTreeNew.coreSwitch[2].eth[1].mac.queue packetRemoved:sum(packetBytes) 0
attr interpolationmode none
attr title "packets removed, sum(packetBytes)"
scalar KFatTreeNew.coreSwitch[2].eth[1].mac "simulated time" 75.00001657856
scalar KFatTreeNew.coreSwitch[2].eth[1].mac full-duplex 1
scalar KFatTreeNew.coreSwitch[2].eth[1].mac "frames/sec sent" 0
scalar KFatTreeNew.coreSwitch[2].eth[1].mac "frames/sec rcvd" 0
scalar KFatTreeNew.coreSwitch[2].eth[1].mac "bits/sec sent" 0
scalar KFatTreeNew.coreSwitch[2].eth[1].mac "bits/sec rcvd" 0
scalar KFatTreeNew.coreSwitch[2].eth[1].mac "rx channel idle (%)" 100
scalar KFatTreeNew.coreSwitch[2].eth[1].mac "rx channel utilization (%)" 0
scalar KFatTreeNew.coreSwitch[2].eth[1].mac rxPausePkUnits:count 0
attr interpolationmode none
attr title "pause units received, count"
scalar KFatTreeNew.coreSwitch[2].eth[1].mac rxPausePkUnits:sum 0
attr interpolationmode none
attr title "pause units received, sum"
scalar KFatTreeNew.coreSwitch[2].eth[1].mac txPausePkUnits:count 0
attr interpolationmode none
attr title "pause units sent, count"
scalar KFatTreeNew.coreSwitch[2].eth[1].mac txPausePkUnits:sum 0
attr interpolationmode none
attr title "pause units sent, sum"
scalar KFatTreeNew.coreSwitch[2].eth[1].mac rxPkOk:count 0
attr interpolationmode none
attr source rxPkOk
attr title "packets received OK, count"
scalar KFatTreeNew.coreSwitch[2].eth[1].mac rxPkOk:sum(packetBytes) 0
attr interpolationmode none
attr source rxPkOk
attr title "packets received OK, sum(packetBytes)"
scalar KFatTreeNew.coreSwitch[2].eth[1].mac txPk:count 0
attr interpolationmode none
attr source packetSentToLower
attr title "packets transmitted, count"
scalar KFatTreeNew.coreSwitch[2].eth[1].mac txPk:sum(packetBytes) 0
attr interpolationmode none
attr source packetSentToLower
attr title "packets transmitted, sum(packetBytes)"
scalar KFatTreeNew.coreSwitch[2].eth[1].mac packetReceivedFromUpper:count 0
attr interpolationmode none
attr source packetReceivedFromUpper
attr title "packet bytes from higher layer, count"
scalar KFatTreeNew.coreSwitch[2].eth[1].mac packetReceivedFromUpper:sum(packetBytes) 0
attr interpolationmode none
attr source packetReceivedFromUpper
attr title "packet bytes from higher layer, sum(packetBytes)"
scalar KFatTreeNew.coreSwitch[2].eth[1].mac passedUpPk:count 0
attr interpolationmode none
attr source packetSentToUpper
attr title "packets passed to higher layer, count"
scalar KFatTreeNew.coreSwitch[2].eth[1].mac passedUpPk:sum(packetBytes) 0
attr interpolationmode none
attr source packetSentToUpper
attr title "packets passed to higher layer, sum(packetBytes)"
scalar KFatTreeNew.coreSwitch[2].eth[1].mac packetDropIncorrectlyReceived:count 0
attr interpolationmode none
attr source packetDropReasonIsIncorrectlyReceived(packetDropped)
attr title "packet drop: incorrectly received, count"
scalar KFatTreeNew.coreSwitch[2].eth[1].mac packetDropIncorrectlyReceived:sum(packetBytes) 0
attr interpolationmode none
[...]
attr title "packet drop: no route found, count"
scalar KFatTreeNew.hosts.replica[12].ipv4.ip packetDropNoRouteFound:sum(packetBytes) 0
attr interpolationmode none
attr source packetDropReasonIsNoRouteFound(packetDropped)
attr title "packet drop: no route found, sum(packetBytes)"
scalar KFatTreeNew.hosts.replica[12].ipv4.ip packetDropUndefined:count 0
attr interpolationmode none
attr source packetDropReasonIsUndefined(packetDropped)
attr title "packet drop: undefined, count"
scalar KFatTreeNew.hosts.replica[12].ipv4.ip packetDropUndefined:sum(packetBytes) 0
attr interpolationmode none
attr source packetDropReasonIsUndefined(packetDropped)
attr title "packet drop: undefined, sum(packetBytes)"
scalar KFatTreeNew.hosts.replica[12].ipv4.arp arpResolutionFailed:count 0
attr title "ARP failed resolutions, count"
scalar KFatTreeNew.hosts.replica[12].ipv4.arp arpResolutionCompleted:count 1
attr title "ARP completed resolutions, count"
scalar KFatTreeNew.hosts.replica[12].ipv4.arp arpResolutionInitiated:count 0
attr title "ARP initiated resolutions, count"
scalar KFatTreeNew.hosts.replica[12].ipv4.arp arpReplySent:count 1
attr source arpReplySent
attr title "ARP replies sent, count"
scalar KFatTreeNew.hosts.replica[12].ipv4.arp arpReplySent:sum(packetBytes) 28
attr source arpReplySent
attr title "ARP replies sent, sum(packetBytes)"
scalar KFatTreeNew.hosts.replica[12].ipv4.arp arpRequestSent:count 0
attr source arpRequestSent
attr title "ARP request sent, count"
scalar KFatTreeNew.hosts.replica[12].ipv4.arp arpRequestSent:sum(packetBytes) 0
attr source arpRequestSent
attr title "ARP request sent, sum(packetBytes)"
scalar KFatTreeNew.hosts.replica[12].udp packetReceived:count 60
attr interpolationmode none
attr source packetReceived
attr title "packets received, count"
scalar KFatTreeNew.hosts.replica[12].udp packetReceived:sum(packetBytes) 75480
attr interpolationmode none
attr source packetReceived
attr title "packets received, sum(packetBytes)"
scalar KFatTreeNew.hosts.replica[12].udp packetSent:count 30
attr interpolationmode none
attr source packetSent
attr title "packets sent, count"
scalar KFatTreeNew.hosts.replica[12].udp packetSent:sum(packetBytes) 37740
attr interpolationmode none
attr source packetSent
attr title "packets sent, sum(packetBytes)"
scalar KFatTreeNew.hosts.replica[12].udp passedUpPk:count 60
attr interpolationmode none
attr source packetSentToUpper
attr title "packets passed up, count"
scalar KFatTreeNew.hosts.replica[12].udp droppedPkWrongPort:count 0
attr interpolationmode none
attr source packetDropReasonIsNoPortFound(packetDropped)
attr title "packets dropped (wrong port), count"
scalar KFatTreeNew.hosts.replica[12].udp droppedPkBadChecksum:count 0
attr interpolationmode none
attr source packetDropReasonIsIncorrectlyReceived(packetDropped)
attr title "packets dropped (checksum error), count"
scalar KFatTreeNew.hosts.replica[12].app[0] packetReceived:count 60
attr interpolationmode none
attr source packetReceived
attr title "packets received, count"
scalar KFatTreeNew.hosts.replica[12].app[0] packetReceived:sum(packetBytes) 75000
attr interpolationmode none
attr source packetReceived
attr title "packets received, sum(packetBytes)"
statistic KFatTreeNew.hosts.replica[12].app[0] endToEndDelay:histogram
field count 60
field mean 1.5721824e-05
field stddev 1.8540050073354e-06
field min 1.513728e-05
field max 2.52864e-05
field sum 0.00094330944
field sqrsum 1.5033347732685e-08
attr interpolationmode none
attr source dataAge(packetReceived)
attr title "end-to-end delay, histogram"
attr unit s
bin	-inf	0
bin	1.24e-05	0
bin	1.26e-05	0
bin	1.28e-05	0
bin	1.3e-05	0
bin	1.32e-05	0
bin	1.34e-05	0
bin	1.36e-05	0
bin	1.38e-05	0
bin	1.4e-05	0
bin	1.42e-05	0
bin	1.44e-05	0
bin	1.46e-05	0
bin	1.48e-05	0
bin	1.5e-05	51
bin	1.52e-05	2
bin	1.54e-05	0
bin	1.56e-05	0
bin	1.58e-05	0
bin	1.6e-05	0
bin	1.62e-05	0
bin	1.64e-05	0
bin	1.66e-05	0
bin	1.68e-05	0
bin	1.7e-05	0
bin	1.72e-05	1
bin	1.74e-05	1
bin	1.76e-05	0
bin	1.78e-05	0
bin	1.8e-05	0
bin	1.82e-05	0
bin	1.84e-05	2
bin	1.86e-05	0
bin	1.88e-05	0
bin	1.9e-05	0
bin	1.92e-05	0
bin	1.94e-05	0
bin	1.96e-05	0
bin	1.98e-05	0
bin	2e-05	0
bin	2.02e-05	0
bin	2.04e-05	0
bin	2.06e-05	0
bin	2.08e-05	0
bin	2.1e-05	0
bin	2.12e-05	0
bin	2.14e-05	0
bin	2.16e-05	2
bin	2.18e-05	0
bin	2.2e-05	0
bin	2.22e-05	0
bin	2.24e-05	0
bin	2.26e-05	0
bin	2.28e-05	0
bin	2.3e-05	0
bin	2.32e-05	0
bin	2.34e-05	0
bin	2.36e-05	0
bin	2.38e-05	0
bin	2.4e-05	0
bin	2.42e-05	0
bin	2.44e-05	0
bin	2.46e-05	0
bin	2.48e-05	0
bin	2.5e-05	0
bin	2.52e-05	1
bin	2.54e-05	0
bin	2.56e-05	0
bin	2.58e-05	0
bin	2.6e-05	0
bin	2.62e-05	0
bin	2.64e-05	0
bin	2.66e-05	0
bin	2.68e-05	0
bin	2.7e-05	0
bin	2.72e-05	0
bin	2.74e-05	0
bin	2.76e-05	0
bin	2.78e-05	0
bin	2.8e-05	0
scalar KFatTreeNew.hosts.replica[13].lo[0].lo rcvdPkFromHl:count 0
attr interpolationmode none
attr source packetReceivedFromUpper
attr title "packets received from higher layer, count"
scalar KFatTreeNew.hosts.replica[13].lo[0].lo rcvdPkFromHl:sum(packetBytes) 0
attr interpolationmode none
attr source packetReceivedFromUpper
attr title "packets received from higher layer, sum(packetBytes)"
scalar KFatTreeNew.hosts.replica[13].lo[0].lo passedUpPk:count 0
attr interpolationmode none
attr source packetSentToUpper
attr title "packets passed to higher layer, count"
scalar KFatTreeNew.hosts.replica[13].lo[0].lo passedUpPk:sum(packetBytes) 0
attr interpolationmode none
attr source packetSentToUpper
attr title "packets passed to higher layer, sum(packetBytes)"
scalar KFatTreeNew.hosts.replica[13].eth[0].mac.queue packetPopped:count 31
attr interpolationmode none
attr title "packet popped, count"
scalar KFatTreeNew.hosts.replica[13].eth[0].mac.queue packetPopped:sum(packetBytes) 38944
attr interpolationmode none
attr title "packet popped, sum(packetBytes)"
statistic KFatTreeNew.hosts.replica[13].eth[0].mac.queue queueingTime:histogram
field count 31
field mean 0
field stddev 0
field min 0
field max 0
field sum 0
field sqrsum 0
attr interpolationmode none
attr source queueingTime(packetPopped)
attr title "queueing times, histogram"
attr unit s
bin	-inf	0
bin	-0.5	0
bin	-0.48	0
bin	-0.46	0
bin	-0.44	0
bin	-0.42	0
bin	-0.4	0
bin	-0.38	0
bin	-0.36	0
bin	-0.34	0
bin	-0.32	0
bin	-0.3	0
bin	-0.28	0
bin	-0.26	0
bin	-0.24	0
bin	-0.22	0
bin	-0.2	0
bin	-0.18	0
bin	-0.16	0
bin	-0.14	0
bin	-0.12	0
bin	-0.1	0
bin	-0.08	0
bin	-0.06	0
bin	-0.04	0
bin	-0.02	0
bin	0	31
bin	0.02	0
bin	0.04	0
bin	0.06	0
bin	0.08	0
bin	0.1	0
bin	0.12	0
bin	0.14	0
bin	0.16	0
bin	0.18	0
bin	0.2	0
bin	0.22	0
bin	0.24	0
bin	0.26	0
bin	0.28	0
bin	0.3	0
bin	0.32	0
bin	0.34	0
bin	0.36	0
bin	0.38	0
bin	0.4	0
bin	0.42	0
bin	0.44	0
bin	0.46	0
bin	0.48	0
bin	0.5	0
scalar KFatTreeNew.hosts.replica[13].eth[0].mac.queue queueLength:max 1
attr interpolationmode sample-hold
attr source "count(packetPushed) - count(packetPopped) - count(packetRemoved) - count(packetDropped)"
attr title "queue length, max"
scalar KFatTreeNew.hosts.replica[13].eth[0].mac.queue queueLength:timeavg 0
attr interpolationmode sample-hold
attr source "count(packetPushed) - count(packetPopped) - count(packetRemoved) - count(packetDropped)"
attr title "queue length, timeavg"
scalar KFatTreeNew.hosts.replica[13].eth[0].mac.queue packetPushed:count 31
attr interpolationmode none
attr title "packet pushed, count"
scalar KFatTreeNew.hosts.replica[13].eth[0].mac.queue packetPushed:sum(packetBytes) 38944
attr interpolationmode none
attr title "packet pushed, sum(packetBytes)"
scalar KFatTreeNew.hosts.replica[13].eth[0].mac.queue packetDropQueueOverflow:count 0
attr interpolationmode none
attr source packetDropReasonIsQueueOverflow(packetDropped)
attr title "packet drops: queue overflow, count"
scalar KFatTreeNew.hosts.replica[13].eth[0].mac.queue packetDropQueueOverflow:sum(packetBytes) 0
attr interpolationmode none
attr source packetDropReasonIsQueueOverflow(packetDropped)
attr title "packet drops: queue overflow, sum(packetBytes)"
scalar KFatTreeNew.hosts.replica[13].eth[0].mac.queue packetRemoved:count 0
attr interpolationmode none
attr title "packets removed, count"
scalar KFatTreeNew.hosts.replica[13].eth[0].mac.queue packetRemoved:sum(packetBytes) 0
attr interpolationmode none
attr title "packets removed, sum(packetBytes)"
scalar KFatTreeNew.hosts.replica[13].eth[0].mac "simulated time" 75.00001657856
scalar KFatTreeNew.hosts.replica[13].eth[0].mac full-duplex 1
scalar KFatTreeNew.hosts.replica[13].eth[0].mac "frames/sec sent" 0.41333324196707
scalar KFatTreeNew.hosts.replica[13].eth[0].mac "frames/sec rcvd" 0.8133331535481
scalar KFatTreeNew.hosts.replica[13].eth[0].mac "bits/sec sent" 4154.0257484298
scalar KFatTreeNew.hosts.replica[13].eth[0].mac "bits/sec rcvd" 8301.2248317019
scalar KFatTreeNew.hosts.replica[13].eth[0].mac "rx channel idle (%)" 100
scalar KFatTreeNew.hosts.replica[13].eth[0].mac "rx channel utilization (%)" 0
scalar KFatTreeNew.hosts.replica[13].eth[0].mac rxPausePkUnits:count 0
attr interpolationmode none
attr title "pause units received, count"
scalar KFatTreeNew.hosts.replica[13].eth[0].mac rxPausePkUnits:sum 0
attr interpolationmode none
attr title "pause units received, sum"
scalar KFatTreeNew.hosts.replica[13].eth[0].mac txPausePkUnits:count 0
attr interpolationmode none
attr title "pause units sent, count"
scalar KFatTreeNew.hosts.replica[13].eth[0].mac txPausePkUnits:sum 0
attr interpolationmode none
attr title "pause units sent, sum"
scalar KFatTreeNew.hosts.replica[13].eth[0].mac rxPkOk:count 61
attr interpolationmode none
attr source rxPkOk
attr title "packets received OK, count"
scalar KFatTreeNew.hosts.replica[13].eth[0].mac rxPkOk:sum(packetBytes) 77824
attr interpolationmode none
attr source rxPkOk
attr title "packets received OK, sum(packetBytes)"
scalar KFatTreeNew.hosts.replica[13].eth[0].mac txPk:count 31
attr interpolationmode none
attr source packetSentToLower
attr title "packets transmitted, count"
scalar KFatTreeNew.hosts.replica[13].eth[0].mac txPk:sum(packetBytes) 38944
attr interpolationmode none
attr source packetSentToLower
attr title "packets transmitted, sum(packetBytes)"
scalar KFatTreeNew.hosts.replica[13].eth[0].mac packetReceivedFromUpper:count 31
attr interpolationmode none
attr source packetReceivedFromUpper
attr title "packet bytes from higher layer, count"
scalar KFatTreeNew.hosts.replica[13].eth[0].mac packetReceivedFromUpper:sum(packetBytes) 38926
attr interpolationmode none
attr source packetReceivedFromUpper
attr title "packet bytes from higher layer, sum(packetBytes)"
scalar KFatTreeNew.hosts.replica[13].eth[0].mac passedUpPk:count 61
attr interpolationmode none
attr source packetSentToUpper
attr title "packets passed to higher layer, count"
scalar KFatTreeNew.hosts.replica[13].eth[0].mac passedUpPk:sum(packetBytes) 77824
attr interpolationmode none
attr source packetSentToUpper
attr title "packets passed to higher layer, sum(packetBytes)"
scalar KFatTreeNew.hosts.replica[13].eth[0].mac packetDropIncorrectlyReceived:count 0
attr interpolationmode none
attr source packetDropReasonIsIncorrectlyReceived(packetDropped)
attr title "packet drop: incorrectly received, count"
scalar KFatTreeNew.hosts.replica[13].eth[0].mac packetDropIncorrectlyReceived:sum(packetBytes) 0
attr interpolationmode none
attr source packetDropReasonIsIncorrectlyReceived(packetDropped)
attr title "packet drop: incorrectly received, sum(packetBytes)"
scalar KFatTreeNew.hosts.replica[13].eth[0].mac packetDropInterfaceDown:count 0
attr interpolationmode none
attr source packetDropReasonIsInterfaceDown(packetDropped)
attr title "packet drop: interface down, count"
scalar KFatTreeNew.hosts.replica[13].eth[0].mac packetDropInterfaceDown:sum(packetBytes) 0
attr interpolationmode none
attr source packetDropReasonIsInterfaceDown(packetDropped)
attr title "packet drop: interface down, sum(packetBytes)"
scalar KFatTreeNew.hosts.replica[13].eth[0].mac packetDropNotAddressedToUs:count 0
attr interpolationmode none
attr source packetDropReasonIsNotAddressedToUs(packetDropped)
attr title "packet drop: not addressed to us, count"
scalar KFatTreeNew.hosts.replica[13].eth[0].mac packetDropNotAddressedToUs:sum(packetBytes) 0
attr interpolationmode none
attr source packetDropReasonIsNotAddressedToUs(packetDropped)
attr title "packet drop: not addressed to us, sum(packetBytes)"
scalar KFatTreeNew.hosts.replica[13].eth[0].encap pauseSent:count 0
attr title "pause sent, count"
scalar KFatTreeNew.hosts.replica[13].eth[0].encap pauseSent:sum 0
attr title "pause sent, sum"
scalar KFatTreeNew.hosts.replica[13].eth[0].encap decapPk:count 61
attr interpolationmode none
attr source decapPk
attr title "packets decapsulated, count"
scalar KFatTreeNew.hosts.replica[13].eth[0].encap decapPk:sum(packetBytes) 76726
attr interpolationmode none
attr source decapPk
attr title "packets decapsulated, sum(packetBytes)"
scalar KFatTreeNew.hosts.replica[13].eth[0].encap encapPk:count 31
attr interpolationmode none
attr source encapPk
attr title "packets encapsulated, count"
scalar KFatTreeNew.hosts.replica[13].eth[0].encap encapPk:sum(packetBytes) 38368
attr interpolationmode none
attr source encapPk
attr title "packets encapsulated, sum(packetBytes)"
scalar KFatTreeNew.hosts.replica[13].ipv4.ip packetDropAddressResolutionFailed:count 0
attr interpolationmode none
attr source packetDropReasonIsAddressResolutionFailed(packetDropped)
attr title "packet drop: address resolution failed, count"
scalar KFatTreeNew.hosts.replica[13].ipv4.ip packetDropAddressResolutionFailed:sum(packetBytes) 0
attr interpolationmode none
attr source packetDropReasonIsAddressResolutionFailed(packetDropped)
attr title "packet drop: address resolution failed, sum(packetBytes)"
scalar KFatTreeNew.hosts.replica[13].ipv4.ip packetDropHopLimitReached:count 0
attr interpolationmode none
attr source packetDropReasonIsHopLimitReached(packetDropped)
attr title "packet drop: hop limit reached, count"
scalar KFatTreeNew.hosts.replica[13].ipv4.ip packetDropHopLimitReached:sum(packetBytes) 0
attr interpolationmode none
attr source packetDropReasonIsHopLimitReached(packetDropped)
attr title "packet drop: hop limit reached, sum(packetBytes)"
scalar KFatTreeNew.hosts.replica[13].ipv4.ip packetDropForwardingDisabled:count 0
attr interpolationmode none
attr source packetDropReasonIsForwardingDisabled(packetDropped)
attr title "packet drop: forwarding disabled, count"
scalar KFatTreeNew.hosts.replica[13].ipv4.ip packetDropForwardingDisabled:sum(packetBytes) 0
attr interpolationmode none
attr source packetDropReasonIsForwardingDisabled(packetDropped)
attr title "packet drop: forwarding disabled, sum(packetBytes)"
scalar KFatTreeNew.hosts.replica[13].ipv4.ip packetDropNoInterfaceFound:count 0
attr interpolationmode none
attr source packetDropReasonIsNoInterfaceFound(packetDropped)
attr title "packet drop: no interface found, count"
scalar KFatTreeNew.hosts.replica[13].ipv4.ip packetDropNoInterfaceFound:sum(packetBytes) 0
attr interpolationmode none
attr source packetDropReasonIsNoInterfaceFound(packetDropped)
attr title "packet drop: no interface found, sum(packetBytes)"
scalar KFatTreeNew.hosts.replica[13].ipv4.ip packetDropNoRouteFound:count 0
attr interpolationmode none
attr source packetDropReasonIsNoRouteFound(packetDropped)
attr title "packet drop: no route found, count"
scalar KFatTreeNew.hosts.replica[13].ipv4.ip packetDropNoRouteFound:sum(packetBytes) 0
attr interpolationmode none
attr source packetDropReasonIsNoRouteFound(packetDropped)
attr title "packet drop: no route found, sum(packetBytes)"
scalar KFatTreeNew.hosts.replica[13].ipv4.ip packetDropUndefined:count 0
attr interpolationmode none
attr source packetDropReasonIsUndefined(packetDropped)
attr title "packet drop: undefined, count"
scalar KFatTreeNew.hosts.replica[13].ipv4.ip packetDropUndefined:sum(packetBytes) 0
attr interpolationmode none
attr source packetDropReasonIsUndefined(packetDropped)
attr title "packet drop: undefined, sum(packetBytes)"
scalar KFatTreeNew.hosts.replica[13].ipv4.arp arpResolutionFailed:count 0
attr title "ARP failed resolutions, count"
scalar KFatTreeNew.hosts.replica[13].ipv4.arp arpResolutionCompleted:count 1
attr title "ARP completed resolutions, count"
scalar KFatTreeNew.hosts.replica[13].ipv4.arp arpResolutionInitiated:count 0
attr title "ARP initiated resolutions, count"
scalar KFatTreeNew.hosts.replica[13].ipv4.arp arpReplySent:count 1
attr source arpReplySent
attr title "ARP replies sent, count"
scalar KFatTreeNew.hosts.replica[13].ipv4.arp arpReplySent:sum(packetBytes) 28
attr source arpReplySent
attr title "ARP replies sent, sum(packetBytes)"
scalar KFatTreeNew.hosts.replica[13].ipv4.arp arpRequestSent:count 0
attr source arpRequestSent
attr title "ARP request sent, count"
scalar KFatTreeNew.hosts.replica[13].ipv4.arp arpRequestSent:sum(packetBytes) 0
attr source arpRequestSent
attr title "ARP request sent, sum(packetBytes)"
scalar KFatTreeNew.hosts.replica[13].udp packetReceived:count 60
attr interpolationmode none
attr source packetReceived
attr title "packets received, count"
scalar KFatTreeNew.hosts.replica[13].udp packetReceived:sum(packetBytes) 75480
attr interpolationmode none
attr source packetReceived
attr title "packets received, sum(packetBytes)"
scalar KFatTreeNew.hosts.replica[13].udp packetSent:count 30
attr interpolationmode none
attr source packetSent
attr title "packets sent, count"
scalar KFatTreeNew.hosts.replica[13].udp packetSent:sum(packetBytes) 37740
attr interpolationmode none
attr source packetSent
attr title "packets sent, sum(packetBytes)"
scalar KFatTreeNew.hosts.replica[13].udp passedUpPk:count 60
attr interpolationmode none
attr source packetSentToUpper
attr title "packets passed up, count"
scalar KFatTreeNew.hosts.replica[13].udp droppedPkWrongPort:count 0
attr interpolationmode none
attr source packetDropReasonIsNoPortFound(packetDropped)
attr title "packets dropped (wrong port), count"
scalar KFatTreeNew.hosts.replica[13].udp droppedPkBadChecksum:count 0
attr interpolationmode none
attr source packetDropReasonIsIncorrectlyReceived(packetDropped)
attr title "packets dropped (checksum error), count"
scalar KFatTreeNew.hosts.replica[13].app[0] packetReceived:count 60
attr interpolationmode none
attr source packetReceived
attr title "packets received, count"
scalar KFatTreeNew.hosts.replica[13].app[0] packetReceived:sum(packetBytes) 75000
attr interpolationmode none
attr source packetReceived
attr title "packets received, sum(packetBytes)"
statistic KFatTreeNew.hosts.replica[13].app[0] endToEndDelay:histogram
field count 60
field mean 1.6774624e-05
field stddev 1.8540050073352e-06
field min 1.619008e-05
field max 2.63392e-05
field sum 0.00100647744
field sqrsum 1.7086083359949e-08
attr interpolationmode none
attr source dataAge(packetReceived)
attr title "end-to-end delay, histogram"
attr unit s
bin	-inf	0
bin	1.36e-05	0
bin	1.38e-05	0
bin	1.4e-05	0
bin	1.42e-05	0
bin	1.44e-05	0
bin	1.46e-05	0
bin	1.48e-05	0
bin	1.5e-05	0
bin	1.52e-05	0
bin	1.54e-05	0
bin	1.56e-05	0
bin	1.58e-05	0
bin	1.6e-05	51
bin	1.62e-05	1
bin	1.64e-05	1
bin	1.66e-05	0
bin	1.68e-05	0
bin	1.7e-05	0
bin	1.72e-05	0
bin	1.74e-05	0
bin	1.76e-05	0
bin	1.78e-05	0
bin	1.8e-05	0
bin	1.82e-05	0
bin	1.84e-05	2
bin	1.86e-05	0
bin	1.88e-05	0
bin	1.9e-05	0
bin	1.92e-05	0
bin	1.94e-05	0
bin	1.96e-05	2
bin	1.98e-05	0
bin	2e-05	0
bin	2.02e-05	0
bin	2.04e-05	0
bin	2.06e-05	0
bin	2.08e-05	0
bin	2.1e-05	0
bin	2.12e-05	0
bin	2.14e-05	0
bin	2.16e-05	0
bin	2.18e-05	0
bin	2.2e-05	0
bin	2.22e-05	0
bin	2.24e-05	0
bin	2.26e-05	2
bin	2.28e-05	0
bin	2.3e-05	0
bin	2.32e-05	0
bin	2.34e-05	0
bin	2.36e-05	0
bin	2.38e-05	0
bin	2.4e-05	0
bin	2.42e-05	0
bin	2.44e-05	0
bin	2.46e-05	0
bin	2.48e-05	0
bin	2.5e-05	0
bin	2.52e-05	0
bin	2.54e-05	0
bin	2.56e-05	0
bin	2.58e-05	0
bin	2.6e-05	0
bin	2.62e-05	1
bin	2.64e-05	0
bin	2.66e-05	0
bin	2.68e-05	0
bin	2.7e-05	0
bin	2.72e-05	0
bin	2.74e-05	0
bin	2.76e-05	0
bin	2.78e-05	0
bin	2.8e-05	0
bin	2.82e-05	0
bin	2.84e-05	0
bin	2.86e-05	0
bin	2.88e-05	0
bin	2.9e-05	0

