file 2841305 1652300979                                         
version 2
run General-0-20220511-22:29:13-28673
attr configname General
attr datetime 20220511-22:29:13
attr experiment General
attr inifile omnetpp.ini
attr iterationvars ""
attr iterationvarsf ""
attr measurement ""
attr network KFatTreeNew
attr processid 28673
attr repetition 0
attr replication #0
attr resultdir results
attr runnumber 0
attr seedset 0
param **.k 4
param **.client.numApps 1
param **.client.app[0].typename "\"ClientApp\""
param **.client.app[0].localPort 100
param **.client.app[0].destPort 100
param **.client.app[0].messageLength 1250B
param **.client.app[0].sendInterval 0.5s
param **.client.app[0].destAddresses "\"hosts.coordinator\""
param **.coordinator.numApps 1
param **.coordinator.app[0].typename "\"CoordApp\""
param **.coordinator.app[0].localPort 100
param **.coordinator.app[0].destPort 100
param **.coordinator.app[0].messageLength 1250B
param **.coordinator.app[0].destAddresses "moduleListByPath(\"**.replica[*]\")"
param **.replica[*].numApps 1
param **.replica[*].app[0].typename "\"ReplicaApp\""
param **.replica[*].app[0].localPort 100
param **.replica[*].app[0].destPort 100
param **.replica[*].app[0].messageLength 1250B
param **.replica[*].app[0].destAddresses "\"hosts.coordinator\""
param **.app[0].chooseDestAddrMode "\"perBurst\""
param **.app[0].startTime 60s
param **.app[0].stopTime 1000s
param **.app[0].delayLimit 3s

vector 0 KFatTreeNew.hosts.client.app[0] packetSent:vector(packetBytes) ETV
attr interpolationmode none
attr source packetSent
attr title "packets sent, vector(packetBytes)"
vector 1 KFatTreeNew.hosts.client.udp packetSent:vector(packetBytes) ETV
attr interpolationmode none
attr source packetSent
attr title "packets sent, vector(packetBytes)"
vector 2 KFatTreeNew.hosts.client.ipv4.arp arpRequestSent:vector(packetBytes) ETV
attr source arpRequestSent
attr title "ARP request sent, vector(packetBytes)"
vector 3 KFatTreeNew.hosts.client.eth[0].encap encapPk:vector(packetBytes) ETV
attr interpolationmode none
attr source encapPk
attr title "packets encapsulated, vector(packetBytes)"
vector 4 KFatTreeNew.hosts.client.eth[0].mac packetReceivedFromUpper:vector(packetBytes) ETV
attr interpolationmode none
attr source packetReceivedFromUpper
attr title "packet bytes from higher layer, vector(packetBytes)"
vector 5 KFatTreeNew.hosts.client.eth[0].mac.queue packetPushed:vector(packetBytes) ETV
attr interpolationmode none
attr title "packet pushed, vector(packetBytes)"
vector 6 KFatTreeNew.hosts.client.eth[0].mac.queue queueLength:vector ETV
attr interpolationmode sample-hold
attr source "count(packetPushed) - count(packetPopped) - count(packetRemoved) - count(packetDropped)"
attr title "queue length, vector"
vector 7 KFatTreeNew.hosts.client.eth[0].mac.queue packetPopped:vector(packetBytes) ETV
attr interpolationmode none
attr title "packet popped, vector(packetBytes)"
vector 8 KFatTreeNew.hosts.client.eth[0].mac.queue queueingTime:vector ETV
attr interpolationmode none
attr source queueingTime(packetPopped)
attr title "queueing times, vector"
attr unit s
vector 9 KFatTreeNew.pod[0].edgeSwitch[0].eth[0].mac rxPkOk:vector(packetBytes) ETV
attr interpolationmode none
attr source rxPkOk
attr title "packets received OK, vector(packetBytes)"
vector 10 KFatTreeNew.pod[0].edgeSwitch[0].eth[0].mac passedUpPk:vector(packetBytes) ETV
attr interpolationmode none
attr source packetSentToUpper
attr title "packets passed to higher layer, vector(packetBytes)"
vector 11 KFatTreeNew.hosts.client.eth[0].mac txPk:vector(packetBytes) ETV
attr interpolationmode none
attr source packetSentToLower
attr title "packets transmitted, vector(packetBytes)"
vector 12 KFatTreeNew.pod[0].edgeSwitch[0].eth[0].encap decapPk:vector(packetBytes) ETV
attr interpolationmode none
attr source decapPk
attr title "packets decapsulated, vector(packetBytes)"
vector 13 KFatTreeNew.pod[0].edgeSwitch[0].ipv4.arp arpReplySent:vector(packetBytes) ETV
attr source arpReplySent
attr title "ARP replies sent, vector(packetBytes)"
vector 14 KFatTreeNew.pod[0].edgeSwitch[0].eth[0].encap encapPk:vector(packetBytes) ETV
attr interpolationmode none
attr source encapPk
attr title "packets encapsulated, vector(packetBytes)"
vector 15 KFatTreeNew.pod[0].edgeSwitch[0].eth[0].mac packetReceivedFromUpper:vector(packetBytes) ETV
attr interpolationmode none
attr source packetReceivedFromUpper
attr title "packet bytes from higher layer, vector(packetBytes)"
vector 16 KFatTreeNew.pod[0].edgeSwitch[0].eth[0].mac.queue packetPushed:vector(packetBytes) ETV
attr interpolationmode none
attr title "packet pushed, vector(packetBytes)"
vector 17 KFatTreeNew.pod[0].edgeSwitch[0].eth[0].mac.queue queueLength:vector ETV
attr interpolationmode sample-hold
attr source "count(packetPushed) - count(packetPopped) - count(packetRemoved) - count(packetDropped)"
attr title "queue length, vector"
vector 18 KFatTreeNew.pod[0].edgeSwitch[0].eth[0].mac.queue packetPopped:vector(packetBytes) ETV
attr interpolationmode none
attr title "packet popped, vector(packetBytes)"
vector 19 KFatTreeNew.pod[0].edgeSwitch[0].eth[0].mac.queue queueingTime:vector ETV
attr interpolationmode none
attr source queueingTime(packetPopped)
attr title "queueing times, vector"
attr unit s
vector 20 KFatTreeNew.hosts.client.eth[0].mac rxPkOk:vector(packetBytes) ETV
attr interpolationmode none
attr source rxPkOk
attr title "packets received OK, vector(packetBytes)"
vector 21 KFatTreeNew.hosts.client.eth[0].mac passedUpPk:vector(packetBytes) ETV
attr interpolationmode none
attr source packetSentToUpper
attr title "packets passed to higher layer, vector(packetBytes)"
vector 22 KFatTreeNew.pod[0].edgeSwitch[0].eth[0].mac txPk:vector(packetBytes) ETV
attr interpolationmode none
attr source packetSentToLower
attr title "packets transmitted, vector(packetBytes)"
vector 23 KFatTreeNew.hosts.client.eth[0].encap decapPk:vector(packetBytes) ETV
attr interpolationmode none
attr source decapPk
attr title "packets decapsulated, vector(packetBytes)"
vector 24 KFatTreeNew.pod[0].edgeSwitch[0].ipv4.arp arpRequestSent:vector(packetBytes) ETV
attr source arpRequestSent
attr title "ARP request sent, vector(packetBytes)"
vector 25 KFatTreeNew.pod[0].edgeSwitch[0].eth[2].encap encapPk:vector(packetBytes) ETV
attr interpolationmode none
attr source encapPk
attr title "packets encapsulated, vector(packetBytes)"
vector 26 KFatTreeNew.pod[0].edgeSwitch[0].eth[2].mac packetReceivedFromUpper:vector(packetBytes) ETV
attr interpolationmode none
attr source packetReceivedFromUpper
attr title "packet bytes from higher layer, vector(packetBytes)"
vector 27 KFatTreeNew.pod[0].edgeSwitch[0].eth[2].mac.queue packetPushed:vector(packetBytes) ETV
attr interpolationmode none
attr title "packet pushed, vector(packetBytes)"
vector 28 KFatTreeNew.pod[0].edgeSwitch[0].eth[2].mac.queue queueLength:vector ETV
attr interpolationmode sample-hold
attr source "count(packetPushed) - count(packetPopped) - count(packetRemoved) - count(packetDropped)"
attr title "queue length, vector"
vector 29 KFatTreeNew.pod[0].edgeSwitch[0].eth[2].mac.queue packetPopped:vector(packetBytes) ETV
attr interpolationmode none
attr title "packet popped, vector(packetBytes)"
vector 30 KFatTreeNew.pod[0].edgeSwitch[0].eth[2].mac.queue queueingTime:vector ETV
attr interpolationmode none
attr source queueingTime(packetPopped)
attr title "queueing times, vector"
attr unit s
vector 31 KFatTreeNew.pod[0].aggregateSwitch[0].eth[2].mac rxPkOk:vector(packetBytes) ETV
attr interpolationmode none
attr source rxPkOk
attr title "packets received OK, vector(packetBytes)"
vector 32 KFatTreeNew.pod[0].aggregateSwitch[0].eth[2].mac passedUpPk:vector(packetBytes) ETV
attr interpolationmode none
attr source packetSentToUpper
attr title "packets passed to higher layer, vector(packetBytes)"
vector 33 KFatTreeNew.pod[0].edgeSwitch[0].eth[2].mac txPk:vector(packetBytes) ETV
attr interpolationmode none
attr source packetSentToLower
attr title "packets transmitted, vector(packetBytes)"
vector 34 KFatTreeNew.pod[0].aggregateSwitch[0].eth[2].encap decapPk:vector(packetBytes) ETV
attr interpolationmode none
attr source decapPk
attr title "packets decapsulated, vector(packetBytes)"
vector 35 KFatTreeNew.pod[0].aggregateSwitch[0].ipv4.arp arpReplySent:vector(packetBytes) ETV
attr source arpReplySent
attr title "ARP replies sent, vector(packetBytes)"
vector 36 KFatTreeNew.pod[0].aggregateSwitch[0].eth[2].encap encapPk:vector(packetBytes) ETV
attr interpolationmode none
attr source encapPk
attr title "packets encapsulated, vector(packetBytes)"
vector 37 KFatTreeNew.pod[0].aggregateSwitch[0].eth[2].mac packetReceivedFromUpper:vector(packetBytes) ETV
attr interpolationmode none
attr source packetReceivedFromUpper
attr title "packet bytes from higher layer, vector(packetBytes)"
vector 38 KFatTreeNew.pod[0].aggregateSwitch[0].eth[2].mac.queue packetPushed:vector(packetBytes) ETV
attr interpolationmode none
attr title "packet pushed, vector(packetBytes)"
vector 39 KFatTreeNew.pod[0].aggregateSwitch[0].eth[2].mac.queue queueLength:vector ETV
attr interpolationmode sample-hold
attr source "count(packetPushed) - count(packetPopped) - count(packetRemoved) - count(packetDropped)"
attr title "queue length, vector"
vector 40 KFatTreeNew.pod[0].aggregateSwitch[0].eth[2].mac.queue packetPopped:vector(packetBytes) ETV
attr interpolationmode none
attr title "packet popped, vector(packetBytes)"
vector 41 KFatTreeNew.pod[0].aggregateSwitch[0].eth[2].mac.queue queueingTime:vector ETV
attr interpolationmode none
attr source queueingTime(packetPopped)
attr title "queueing times, vector"
attr unit s
vector 42 KFatTreeNew.pod[0].edgeSwitch[0].eth[2].mac rxPkOk:vector(packetBytes) ETV
attr interpolationmode none
attr source rxPkOk
attr title "packets received OK, vector(packetBytes)"
vector 43 KFatTreeNew.pod[0].edgeSwitch[0].eth[2].mac passedUpPk:vector(packetBytes) ETV
attr interpolationmode none
attr source packetSentToUpper
attr title "packets passed to higher layer, vector(packetBytes)"
vector 44 KFatTreeNew.pod[0].aggregateSwitch[0].eth[2].mac txPk:vector(packetBytes) ETV
attr interpolationmode none
attr source packetSentToLower
attr title "packets transmitted, vector(packetBytes)"
vector 45 KFatTreeNew.pod[0].edgeSwitch[0].eth[2].encap decapPk:vector(packetBytes) ETV
attr interpolationmode none
attr source decapPk
attr title "packets decapsulated, vector(packetBytes)"
vector 46 KFatTreeNew.pod[0].aggregateSwitch[0].ipv4.arp arpRequestSent:vector(packetBytes) ETV
attr source arpRequestSent
attr title "ARP request sent, vector(packetBytes)"
vector 47 KFatTreeNew.pod[0].aggregateSwitch[0].eth[3].encap encapPk:vector(packetBytes) ETV
attr interpolationmode none
attr source encapPk
attr title "packets encapsulated, vector(packetBytes)"
vector 48 KFatTreeNew.pod[0].aggregateSwitch[0].eth[3].mac packetReceivedFromUpper:vector(packetBytes) ETV
attr interpolationmode none
attr source packetReceivedFromUpper
attr title "packet bytes from higher layer, vector(packetBytes)"
vector 49 KFatTreeNew.pod[0].aggregateSwitch[0].eth[3].mac.queue packetPushed:vector(packetBytes) ETV
attr interpolationmode none
attr title "packet pushed, vector(packetBytes)"
vector 50 KFatTreeNew.pod[0].aggregateSwitch[0].eth[3].mac.queue queueLength:vector ETV
attr interpolationmode sample-hold
attr source "count(packetPushed) - count(packetPopped) - count(packetRemoved) - count(packetDropped)"
attr title "queue length, vector"
vector 51 KFatTreeNew.pod[0].aggregateSwitch[0].eth[3].mac.queue packetPopped:vector(packetBytes) ETV
attr interpolationmode none
attr title "packet popped, vector(packetBytes)"
vector 52 KFatTreeNew.pod[0].aggregateSwitch[0].eth[3].mac.queue queueingTime:vector ETV
attr interpolationmode none
attr source queueingTime(packetPopped)
attr title "queueing times, vector"
attr unit s
vector 53 KFatTreeNew.pod[0].edgeSwitch[1].eth[2].mac rxPkOk:vector(packetBytes) ETV
attr interpolationmode none
attr source rxPkOk
attr title "packets received OK, vector(packetBytes)"
vector 54 KFatTreeNew.pod[0].edgeSwitch[1].eth[2].mac passedUpPk:vector(packetBytes) ETV
attr interpolationmode none
attr source packetSentToUpper
attr title "packets passed to higher layer, vector(packetBytes)"
vector 55 KFatTreeNew.pod[0].aggregateSwitch[0].eth[3].mac txPk:vector(packetBytes) ETV
attr interpolationmode none
attr source packetSentToLower
attr title "packets transmitted, vector(packetBytes)"
vector 56 KFatTreeNew.pod[0].edgeSwitch[1].eth[2].encap decapPk:vector(packetBytes) ETV
attr interpolationmode none
attr source decapPk
attr title "packets decapsulated, vector(packetBytes)"
vector 57 KFatTreeNew.pod[0].edgeSwitch[1].ipv4.arp arpReplySent:vector(packetBytes) ETV
attr source arpReplySent
attr title "ARP replies sent, vector(packetBytes)"
vector 58 KFatTreeNew.pod[0].edgeSwitch[1].eth[2].encap encapPk:vector(packetBytes) ETV
attr interpolationmode none
attr source encapPk
attr title "packets encapsulated, vector(packetBytes)"
vector 59 KFatTreeNew.pod[0].edgeSwitch[1].eth[2].mac packetReceivedFromUpper:vector(packetBytes) ETV
attr interpolationmode none
attr source packetReceivedFromUpper
attr title "packet bytes from higher layer, vector(packetBytes)"
vector 60 KFatTreeNew.pod[0].edgeSwitch[1].eth[2].mac.queue packetPushed:vector(packetBytes) ETV
attr interpolationmode none
attr title "packet pushed, vector(packetBytes)"
vector 61 KFatTreeNew.pod[0].edgeSwitch[1].eth[2].mac.queue queueLength:vector ETV
attr interpolationmode sample-hold
attr source "count(packetPushed) - count(packetPopped) - count(packetRemoved) - count(packetDropped)"
attr title "queue length, vector"
vector 62 KFatTreeNew.pod[0].edgeSwitch[1].eth[2].mac.queue packetPopped:vector(packetBytes) ETV
attr interpolationmode none
attr title "packet popped, vector(packetBytes)"
vector 63 KFatTreeNew.pod[0].edgeSwitch[1].eth[2].mac.queue queueingTime:vector ETV
attr interpolationmode none
attr source queueingTime(packetPopped)
attr title "queueing times, vector"
attr unit s
vector 64 KFatTreeNew.pod[0].aggregateSwitch[0].eth[3].mac rxPkOk:vector(packetBytes) ETV
attr interpolationmode none
attr source rxPkOk
attr title "packets received OK, vector(packetBytes)"
vector 65 KFatTreeNew.pod[0].aggregateSwitch[0].eth[3].mac passedUpPk:vector(packetBytes) ETV
attr interpolationmode none
attr source packetSentToUpper
attr title "packets passed to higher layer, vector(packetBytes)"
vector 66 KFatTreeNew.pod[0].edgeSwitch[1].eth[2].mac txPk:vector(packetBytes) ETV
attr interpolationmode none
attr source packetSentToLower
attr title "packets transmitted, vector(packetBytes)"
vector 67 KFatTreeNew.pod[0].aggregateSwitch[0].eth[3].encap decapPk:vector(packetBytes) ETV
attr interpolationmode none
attr source decapPk
attr title "packets decapsulated, vector(packetBytes)"
vector 68 KFatTreeNew.pod[0].edgeSwitch[1].ipv4.arp arpRequestSent:vector(packetBytes) ETV
attr source arpRequestSent
attr title "ARP request sent, vector(packetBytes)"
vector 69 KFatTreeNew.pod[0].edgeSwitch[1].eth[0].encap encapPk:vector(packetBytes) ETV
attr interpolationmode none
attr source encapPk
attr title "packets encapsulated, vector(packetBytes)"
vector 70 KFatTreeNew.pod[0].edgeSwitch[1].eth[0].mac packetReceivedFromUpper:vector(packetBytes) ETV
attr interpolationmode none
attr source packetReceivedFromUpper
attr title "packet bytes from higher layer, vector(packetBytes)"
vector 71 KFatTreeNew.pod[0].edgeSwitch[1].eth[0].mac.queue packetPushed:vector(packetBytes) ETV
attr interpolationmode none
attr title "packet pushed, vector(packetBytes)"
vector 72 KFatTreeNew.pod[0].edgeSwitch[1].eth[0].mac.queue queueLength:vector ETV
attr interpolationmode sample-hold
attr source "count(packetPushed) - count(packetPopped) - count(packetRemoved) - count(packetDropped)"
attr title "queue length, vector"
vector 73 KFatTreeNew.pod[0].edgeSwitch[1].eth[0].mac.queue packetPopped:vector(packetBytes) ETV
attr interpolationmode none
attr title "packet popped, vector(packetBytes)"
vector 74 KFatTreeNew.pod[0].edgeSwitch[1].eth[0].mac.queue queueingTime:vector ETV
attr interpolationmode none
attr source queueingTime(packetPopped)
attr title "queueing times, vector"
attr unit s
vector 75 KFatTreeNew.hosts.coordinator.eth[0].mac rxPkOk:vector(packetBytes) ETV
attr interpolationmode none
attr source rxPkOk
attr title "packets received OK, vector(packetBytes)"
vector 76 KFatTreeNew.hosts.coordinator.eth[0].mac passedUpPk:vector(packetBytes) ETV
attr interpolationmode none
attr source packetSentToUpper
attr title "packets passed to higher layer, vector(packetBytes)"
vector 77 KFatTreeNew.pod[0].edgeSwitch[1].eth[0].mac txPk:vector(packetBytes) ETV
attr interpolationmode none
attr source packetSentToLower
attr title "packets transmitted, vector(packetBytes)"
vector 78 KFatTreeNew.hosts.coordinator.eth[0].encap decapPk:vector(packetBytes) ETV
attr interpolationmode none
attr source decapPk
attr title "packets decapsulated, vector(packetBytes)"
vector 79 KFatTreeNew.hosts.coordinator.ipv4.arp arpReplySent:vector(packetBytes) ETV
attr source arpReplySent
attr title "ARP replies sent, vector(packetBytes)"
vector 80 KFatTreeNew.hosts.coordinator.eth[0].encap encapPk:vector(packetBytes) ETV
attr interpolationmode none
attr source encapPk
attr title "packets encapsulated, vector(packetBytes)"
vector 81 KFatTreeNew.hosts.coordinator.eth[0].mac packetReceivedFromUpper:vector(packetBytes) ETV
attr interpolationmode none
attr source packetReceivedFromUpper
attr title "packet bytes from higher layer, vector(packetBytes)"
vector 82 KFatTreeNew.hosts.coordinator.eth[0].mac.queue packetPushed:vector(packetBytes) ETV
attr interpolationmode none
attr title "packet pushed, vector(packetBytes)"
vector 83 KFatTreeNew.hosts.coordinator.eth[0].mac.queue queueLength:vector ETV
attr interpolationmode sample-hold
attr source "count(packetPushed) - count(packetPopped) - count(packetRemoved) - count(packetDropped)"
attr title "queue length, vector"
vector 84 KFatTreeNew.hosts.coordinator.eth[0].mac.queue packetPopped:vector(packetBytes) ETV
attr interpolationmode none
attr title "packet popped, vector(packetBytes)"
vector 85 KFatTreeNew.hosts.coordinator.eth[0].mac.queue queueingTime:vector ETV
attr interpolationmode none
attr source queueingTime(packetPopped)
attr title "queueing times, vector"
attr unit s
vector 86 KFatTreeNew.pod[0].edgeSwitch[1].eth[0].mac rxPkOk:vector(packetBytes) ETV
attr interpolationmode none
attr source rxPkOk
attr title "packets received OK, vector(packetBytes)"
vector 87 KFatTreeNew.pod[0].edgeSwitch[1].eth[0].mac passedUpPk:vector(packetBytes) ETV
attr interpolationmode none
attr source packetSentToUpper
attr title "packets passed to higher layer, vector(packetBytes)"
vector 88 KFatTreeNew.hosts.coordinator.eth[0].mac txPk:vector(packetBytes) ETV
attr interpolationmode none
attr source packetSentToLower
attr title "packets transmitted, vector(packetBytes)"
vector 89 KFatTreeNew.pod[0].edgeSwitch[1].eth[0].encap decapPk:vector(packetBytes) ETV
attr interpolationmode none
attr source decapPk
attr title "packets decapsulated, vector(packetBytes)"
vector 90 KFatTreeNew.hosts.coordinator.udp packetReceived:vector(packetBytes) ETV
attr interpolationmode none
attr source packetReceived
attr title "packets received, vector(packetBytes)"
vector 91 KFatTreeNew.hosts.coordinator.udp passedUpPk:vector(count) ETV
attr interpolationmode none
attr source packetSentToUpper
attr title "packets passed up, vector(count)"
vector 92 KFatTreeNew.hosts.coordinator.app[0] packetReceived:vector(packetBytes) ETV
attr interpolationmode none
attr source packetReceived
attr title "packets received, vector(packetBytes)"
vector 93 KFatTreeNew.hosts.coordinator.app[0] throughput:vector ETV
attr source throughput(packetReceived)
attr title "throughput, vector"
attr unit bps
vector 94 KFatTreeNew.hosts.coordinator.app[0] endToEndDelay:vector ETV
attr interpolationmode none
attr source dataAge(packetReceived)
attr title "end-to-end delay, vector"
attr unit s
vector 95 KFatTreeNew.hosts.coordinator.app[0] rcvdPkSeqNo:vector ETV
attr interpolationmode none
attr source appPkSeqNo(packetReceived)
attr title "received packet sequence number, vector"
vector 96 KFatTreeNew.hosts.coordinator.udp packetSent:vector(packetBytes) ETV
attr interpolationmode none
attr source packetSent
attr title "packets sent, vector(packetBytes)"
vector 97 KFatTreeNew.pod[0].edgeSwitch[0].eth[1].encap encapPk:vector(packetBytes) ETV
attr interpolationmode none
attr source encapPk
attr title "packets encapsulated, vector(packetBytes)"
vector 98 KFatTreeNew.pod[0].edgeSwitch[0].eth[1].mac packetReceivedFromUpper:vector(packetBytes) ETV
attr interpolationmode none
attr source packetReceivedFromUpper
attr title "packet bytes from higher layer, vector(packetBytes)"
vector 99 KFatTreeNew.pod[0].edgeSwitch[0].eth[1].mac.queue packetPushed:vector(packetBytes) ETV
attr interpolationmode none
attr title "packet pushed, vector(packetBytes)"
vector 100 KFatTreeNew.pod[0].edgeSwitch[0].eth[1].mac.queue queueLength:vector ETV
attr interpolationmode sample-hold
attr source "count(packetPushed) - count(packetPopped) - count(packetRemoved) - count(packetDropped)"
attr title "queue length, vector"
vector 101 KFatTreeNew.pod[0].edgeSwitch[0].eth[1].mac.queue packetPopped:vector(packetBytes) ETV
attr interpolationmode none
attr title "packet popped, vector(packetBytes)"
vector 102 KFatTreeNew.pod[0].edgeSwitch[0].eth[1].mac.queue queueingTime:vector ETV
attr interpolationmode none
attr source queueingTime(packetPopped)
attr title "queueing times, vector"
attr unit s
vector 103 KFatTreeNew.hosts.replica[0].eth[0].mac rxPkOk:vector(packetBytes) ETV
attr interpolationmode none
attr source rxPkOk
attr title "packets received OK, vector(packetBytes)"
vector 104 KFatTreeNew.hosts.replica[0].eth[0].mac passedUpPk:vector(packetBytes) ETV
attr interpolationmode none
attr source packetSentToUpper
attr title "packets passed to higher layer, vector(packetBytes)"
vector 105 KFatTreeNew.pod[0].edgeSwitch[0].eth[1].mac txPk:vector(packetBytes) ETV
attr interpolationmode none
attr source packetSentToLower
attr title "packets transmitted, vector(packetBytes)"
vector 106 KFatTreeNew.hosts.replica[0].eth[0].encap decapPk:vector(packetBytes) ETV
attr interpolationmode none
attr source decapPk
attr title "packets decapsulated, vector(packetBytes)"
vector 107 KFatTreeNew.hosts.replica[0].ipv4.arp arpReplySent:vector(packetBytes) ETV
attr source arpReplySent
attr title "ARP replies sent, vector(packetBytes)"
vector 108 KFatTreeNew.hosts.replica[0].eth[0].encap encapPk:vector(packetBytes) ETV
attr interpolationmode none
attr source encapPk
attr title "packets encapsulated, vector(packetBytes)"
vector 109 KFatTreeNew.hosts.replica[0].eth[0].mac packetReceivedFromUpper:vector(packetBytes) ETV
attr interpolationmode none
attr source packetReceivedFromUpper
attr title "packet bytes from higher layer, vector(packetBytes)"
vector 110 KFatTreeNew.hosts.replica[0].eth[0].mac.queue packetPushed:vector(packetBytes) ETV
attr interpolationmode none
attr title "packet pushed, vector(packetBytes)"
vector 111 KFatTreeNew.hosts.replica[0].eth[0].mac.queue queueLength:vector ETV
attr interpolationmode sample-hold
attr source "count(packetPushed) - count(packetPopped) - count(packetRemoved) - count(packetDropped)"
attr title "queue length, vector"
vector 112 KFatTreeNew.hosts.replica[0].eth[0].mac.queue packetPopped:vector(packetBytes) ETV
attr interpolationmode none
attr title "packet popped, vector(packetBytes)"
vector 113 KFatTreeNew.hosts.replica[0].eth[0].mac.queue queueingTime:vector ETV
attr interpolationmode none
attr source queueingTime(packetPopped)
attr title "queueing times, vector"
attr unit s
vector 114 KFatTreeNew.pod[0].edgeSwitch[0].eth[1].mac rxPkOk:vector(packetBytes) ETV
attr interpolationmode none
attr source rxPkOk
attr title "packets received OK, vector(packetBytes)"
vector 115 KFatTreeNew.pod[0].edgeSwitch[0].eth[1].mac passedUpPk:vector(packetBytes) ETV
attr interpolationmode none
attr source packetSentToUpper
attr title "packets passed to higher layer, vector(packetBytes)"
vector 116 KFatTreeNew.hosts.replica[0].eth[0].mac txPk:vector(packetBytes) ETV
attr interpolationmode none
attr source packetSentToLower
attr title "packets transmitted, vector(packetBytes)"
vector 117 KFatTreeNew.pod[0].edgeSwitch[0].eth[1].encap decapPk:vector(packetBytes) ETV
attr interpolationmode none
attr source decapPk
attr title "packets decapsulated, vector(packetBytes)"
vector 118 KFatTreeNew.pod[0].edgeSwitch[1].eth[1].encap encapPk:vector(packetBytes) ETV
attr interpolationmode none
attr source encapPk
attr title "packets encapsulated, vector(packetBytes)"
vector 119 KFatTreeNew.pod[0].edgeSwitch[1].eth[1].mac packetReceivedFromUpper:vector(packetBytes) ETV
attr interpolationmode none
attr source packetReceivedFromUpper
attr title "packet bytes from higher layer, vector(packetBytes)"
vector 120 KFatTreeNew.pod[0].edgeSwitch[1].eth[1].mac.queue packetPushed:vector(packetBytes) ETV
attr interpolationmode none
attr title "packet pushed, vector(packetBytes)"
vector 121 KFatTreeNew.pod[0].edgeSwitch[1].eth[1].mac.queue queueLength:vector ETV
attr interpolationmode sample-hold
attr source "count(packetPushed) - count(packetPopped) - count(packetRemoved) - count(packetDropped)"
attr title "queue length, vector"
vector 122 KFatTreeNew.pod[0].edgeSwitch[1].eth[1].mac.queue packetPopped:vector(packetBytes) ETV
attr interpolationmode none
attr title "packet popped, vector(packetBytes)"
vector 123 KFatTreeNew.pod[0].edgeSwitch[1].eth[1].mac.queue queueingTime:vector ETV
attr interpolationmode none
attr source queueingTime(packetPopped)
attr title "queueing times, vector"
attr unit s
vector 124 KFatTreeNew.hosts.replica[1].eth[0].mac rxPkOk:vector(packetBytes) ETV
attr interpolationmode none
attr source rxPkOk
attr title "packets received OK, vector(packetBytes)"
vector 125 KFatTreeNew.hosts.replica[1].eth[0].mac passedUpPk:vector(packetBytes) ETV
attr interpolationmode none
attr source packetSentToUpper
attr title "packets passed to higher layer, vector(packetBytes)"
vector 126 KFatTreeNew.pod[0].edgeSwitch[1].eth[1].mac txPk:vector(packetBytes) ETV
attr interpolationmode none
attr source packetSentToLower
attr title "packets transmitted, vector(packetBytes)"
vector 127 KFatTreeNew.hosts.replica[1].eth[0].encap decapPk:vector(packetBytes) ETV
attr interpolationmode none
attr source decapPk
attr title "packets decapsulated, vector(packetBytes)"
vector 128 KFatTreeNew.hosts.replica[1].ipv4.arp arpReplySent:vector(packetBytes) ETV
attr source arpReplySent
attr title "ARP replies sent, vector(packetBytes)"
vector 129 KFatTreeNew.hosts.replica[1].eth[0].encap encapPk:vector(packetBytes) ETV
attr interpolationmode none
attr source encapPk
attr title "packets encapsulated, vector(packetBytes)"
vector 130 KFatTreeNew.hosts.replica[1].eth[0].mac packetReceivedFromUpper:vector(packetBytes) ETV
attr interpolationmode none
attr source packetReceivedFromUpper
attr title "packet bytes from higher layer, vector(packetBytes)"
vector 131 KFatTreeNew.hosts.replica[1].eth[0].mac.queue packetPushed:vector(packetBytes) ETV
attr interpolationmode none
attr title "packet pushed, vector(packetBytes)"
vector 132 KFatTreeNew.hosts.replica[1].eth[0].mac.queue queueLength:vector ETV
attr interpolationmode sample-hold
attr source "count(packetPushed) - count(packetPopped) - count(packetRemoved) - count(packetDropped)"
attr title "queue length, vector"
vector 133 KFatTreeNew.hosts.replica[1].eth[0].mac.queue packetPopped:vector(packetBytes) ETV
attr interpolationmode none
attr title "packet popped, vector(packetBytes)"
vector 134 KFatTreeNew.hosts.replica[1].eth[0].mac.queue queueingTime:vector ETV
attr interpolationmode none
attr source queueingTime(packetPopped)
attr title "queueing times, vector"
attr unit s
vector 135 KFatTreeNew.pod[0].edgeSwitch[1].eth[1].mac rxPkOk:vector(packetBytes) ETV
attr interpolationmode none
attr source rxPkOk
attr title "packets received OK, vector(packetBytes)"
vector 136 KFatTreeNew.pod[0].edgeSwitch[1].eth[1].mac passedUpPk:vector(packetBytes) ETV
attr interpolationmode none
attr source packetSentToUpper
attr title "packets passed to higher layer, vector(packetBytes)"
vector 137 KFatTreeNew.hosts.replica[1].eth[0].mac txPk:vector(packetBytes) ETV
attr interpolationmode none
attr source packetSentToLower
attr title "packets transmitted, vector(packetBytes)"
vector 138 KFatTreeNew.pod[0].edgeSwitch[1].eth[1].encap decapPk:vector(packetBytes) ETV
attr interpolationmode none
attr source decapPk
attr title "packets decapsulated, vector(packetBytes)"
vector 139 KFatTreeNew.hosts.replica[0].udp packetReceived:vector(packetBytes) ETV
attr interpolationmode none
attr source packetReceived
attr title "packets received, vector(packetBytes)"
vector 140 KFatTreeNew.hosts.replica[0].udp passedUpPk:vector(count) ETV
attr interpolationmode none
attr source packetSentToUpper
attr title "packets passed up, vector(count)"
vector 141 KFatTreeNew.hosts.replica[0].app[0] packetReceived:vector(packetBytes) ETV
attr interpolationmode none
attr source packetReceived
attr title "packets received, vector(packetBytes)"
vector 142 KFatTreeNew.hosts.replica[0].app[0] throughput:vector ETV
attr source throughput(packetReceived)
attr title "throughput, vector"
attr unit bps
vector 143 KFatTreeNew.hosts.replica[0].app[0] endToEndDelay:vector ETV
attr interpolationmode none
attr source dataAge(packetReceived)
attr title "end-to-end delay, vector"
attr unit s
vector 144 KFatTreeNew.hosts.replica[0].app[0] rcvdPkSeqNo:vector ETV
attr interpolationmode none
attr source appPkSeqNo(packetReceived)
attr title "received packet sequence number, vector"
vector 145 KFatTreeNew.hosts.replica[0].udp packetSent:vector(packetBytes) ETV
attr interpolationmode none
attr source packetSent
attr title "packets sent, vector(packetBytes)"
vector 146 KFatTreeNew.pod[0].aggregateSwitch[0].eth[0].encap encapPk:vector(packetBytes) ETV
attr interpolationmode none
attr source encapPk
attr title "packets encapsulated, vector(packetBytes)"
vector 147 KFatTreeNew.pod[0].aggregateSwitch[0].eth[0].mac packetReceivedFromUpper:vector(packetBytes) ETV
attr interpolationmode none
attr source packetReceivedFromUpper
attr title "packet bytes from higher layer, vector(packetBytes)"
vector 148 KFatTreeNew.pod[0].aggregateSwitch[0].eth[0].mac.queue packetPushed:vector(packetBytes) ETV
attr interpolationmode none
attr title "packet pushed, vector(packetBytes)"
vector 149 KFatTreeNew.pod[0].aggregateSwitch[0].eth[0].mac.queue queueLength:vector ETV
attr interpolationmode sample-hold
attr source "count(packetPushed) - count(packetPopped) - count(packetRemoved) - count(packetDropped)"
attr title "queue length, vector"
vector 150 KFatTreeNew.pod[0].aggregateSwitch[0].eth[0].mac.queue packetPopped:vector(packetBytes) ETV
attr interpolationmode none
attr title "packet popped, vector(packetBytes)"
vector 151 KFatTreeNew.pod[0].aggregateSwitch[0].eth[0].mac.queue queueingTime:vector ETV
attr interpolationmode none
attr source queueingTime(packetPopped)
attr title "queueing times, vector"
attr unit s
vector 152 KFatTreeNew.hosts.replica[1].udp packetReceived:vector(packetBytes) ETV
attr interpolationmode none
attr source packetReceived
attr title "packets received, vector(packetBytes)"
vector 153 KFatTreeNew.hosts.replica[1].udp passedUpPk:vector(count) ETV
attr interpolationmode none
attr source packetSentToUpper
attr title "packets passed up, vector(count)"
vector 154 KFatTreeNew.hosts.replica[1].app[0] packetReceived:vector(packetBytes) ETV
attr interpolationmode none
attr source packetReceived
attr title "packets received, vector(packetBytes)"
vector 155 KFatTreeNew.hosts.replica[1].app[0] throughput:vector ETV
attr source throughput(packetReceived)
attr title "throughput, vector"
attr unit bps
vector 156 KFatTreeNew.hosts.replica[1].app[0] endToEndDelay:vector ETV
attr interpolationmode none
attr source dataAge(packetReceived)
attr title "end-to-end delay, vector"
attr unit s
vector 157 KFatTreeNew.hosts.replica[1].app[0] rcvdPkSeqNo:vector ETV
attr interpolationmode none
attr source appPkSeqNo(packetReceived)
attr title "received packet sequence number, vector"
vector 158 KFatTreeNew.hosts.replica[1].udp packetSent:vector(packetBytes) ETV
attr interpolationmode none
attr source packetSent
attr title "packets sent, vector(packetBytes)"
vector 159 KFatTreeNew.coreSwitch[0].eth[0].mac rxPkOk:vector(packetBytes) ETV
attr interpolationmode none
attr source rxPkOk
attr title "packets received OK, vector(packetBytes)"
vector 160 KFatTreeNew.coreSwitch[0].eth[0].mac passedUpPk:vector(packetBytes) ETV
attr interpolationmode none
attr source packetSentToUpper
attr title "packets passed to higher layer, vector(packetBytes)"
vector 161 KFatTreeNew.pod[0].aggregateSwitch[0].eth[0].mac txPk:vector(packetBytes) ETV
attr interpolationmode none
attr source packetSentToLower
attr title "packets transmitted, vector(packetBytes)"
vector 162 KFatTreeNew.coreSwitch[0].eth[0].encap decapPk:vector(packetBytes) ETV
attr interpolationmode none
attr source decapPk
attr title "packets decapsulated, vector(packetBytes)"
vector 163 KFatTreeNew.coreSwitch[0].ipv4.arp arpReplySent:vector(packetBytes) ETV
attr source arpReplySent
attr title "ARP replies sent, vector(packetBytes)"
vector 164 KFatTreeNew.coreSwitch[0].eth[0].encap encapPk:vector(packetBytes) ETV
attr interpolationmode none
attr source encapPk
attr title "packets encapsulated, vector(packetBytes)"
vector 165 KFatTreeNew.coreSwitch[0].eth[0].mac packetReceivedFromUpper:vector(packetBytes) ETV
attr interpolationmode none
attr source packetReceivedFromUpper
attr title "packet bytes from higher layer, vector(packetBytes)"
vector 166 KFatTreeNew.coreSwitch[0].eth[0].mac.queue packetPushed:vector(packetBytes) ETV
attr interpolationmode none
attr title "packet pushed, vector(packetBytes)"
vector 167 KFatTreeNew.coreSwitch[0].eth[0].mac.queue queueLength:vector ETV
attr interpolationmode sample-hold
attr source "count(packetPushed) - count(packetPopped) - count(packetRemoved) - count(packetDropped)"
attr title "queue length, vector"
vector 168 KFatTreeNew.coreSwitch[0].eth[0].mac.queue packetPopped:vector(packetBytes) ETV
attr interpolationmode none
attr title "packet popped, vector(packetBytes)"
vector 169 KFatTreeNew.coreSwitch[0].eth[0].mac.queue queueingTime:vector ETV
attr interpolationmode none
attr source queueingTime(packetPopped)
attr title "queueing times, vector"
attr unit s
vector 170 KFatTreeNew.pod[0].aggregateSwitch[0].eth[0].mac rxPkOk:vector(packetBytes) ETV
attr interpolationmode none
attr source rxPkOk
attr title "packets received OK, vector(packetBytes)"
vector 171 KFatTreeNew.pod[0].aggregateSwitch[0].eth[0].mac passedUpPk:vector(packetBytes) ETV
attr interpolationmode none
attr source packetSentToUpper
attr title "packets passed to higher layer, vector(packetBytes)"
vector 172 KFatTreeNew.coreSwitch[0].eth[0].mac txPk:vector(packetBytes) ETV
attr interpolationmode none
attr source packetSentToLower
attr title "packets transmitted, vector(packetBytes)"
vector 173 KFatTreeNew.pod[0].aggregateSwitch[0].eth[0].encap decapPk:vector(packetBytes) ETV
attr interpolationmode none
attr source decapPk
attr title "packets decapsulated, vector(packetBytes)"
vector 174 KFatTreeNew.coreSwitch[0].ipv4.arp arpRequestSent:vector(packetBytes) ETV
attr source arpRequestSent
attr title "ARP request sent, vector(packetBytes)"
vector 175 KFatTreeNew.coreSwitch[0].eth[1].encap encapPk:vector(packetBytes) ETV
attr interpolationmode none
attr source encapPk
attr title "packets encapsulated, vector(packetBytes)"
vector 176 KFatTreeNew.coreSwitch[0].eth[1].mac packetReceivedFromUpper:vector(packetBytes) ETV
attr interpolationmode none
attr source packetReceivedFromUpper
attr title "packet bytes from higher layer, vector(packetBytes)"
vector 177 KFatTreeNew.coreSwitch[0].eth[1].mac.queue packetPushed:vector(packetBytes) ETV
attr interpolationmode none
attr title "packet pushed, vector(packetBytes)"
vector 178 KFatTreeNew.coreSwitch[0].eth[1].mac.queue queueLength:vector ETV
attr interpolationmode sample-hold
attr source "count(packetPushed) - count(packetPopped) - count(packetRemoved) - count(packetDropped)"
attr title "queue length, vector"
vector 179 KFatTreeNew.coreSwitch[0].eth[1].mac.queue packetPopped:vector(packetBytes) ETV
attr interpolationmode none
attr title "packet popped, vector(packetBytes)"
vector 180 KFatTreeNew.coreSwitch[0].eth[1].mac.queue queueingTime:vector ETV
attr interpolationmode none
attr source queueingTime(packetPopped)
attr title "queueing times, vector"
attr unit s
vector 181 KFatTreeNew.pod[1].aggregateSwitch[0].eth[0].mac rxPkOk:vector(packetBytes) ETV
attr interpolationmode none
attr source rxPkOk
attr title "packets received OK, vector(packetBytes)"
vector 182 KFatTreeNew.pod[1].aggregateSwitch[0].eth[0].mac passedUpPk:vector(packetBytes) ETV
attr interpolationmode none
attr source packetSentToUpper
attr title "packets passed to higher layer, vector(packetBytes)"
vector 183 KFatTreeNew.coreSwitch[0].eth[1].mac txPk:vector(packetBytes) ETV
attr interpolationmode none
attr source packetSentToLower
attr title "packets transmitted, vector(packetBytes)"
vector 184 KFatTreeNew.pod[1].aggregateSwitch[0].eth[0].encap decapPk:vector(packetBytes) ETV
attr interpolationmode none
attr source decapPk
attr title "packets decapsulated, vector(packetBytes)"
vector 185 KFatTreeNew.pod[1].aggregateSwitch[0].ipv4.arp arpReplySent:vector(packetBytes) ETV
attr source arpReplySent
attr title "ARP replies sent, vector(packetBytes)"
vector 186 KFatTreeNew.pod[1].aggregateSwitch[0].eth[0].encap encapPk:vector(packetBytes) ETV
attr interpolationmode none
attr source encapPk
attr title "packets encapsulated, vector(packetBytes)"
vector 187 KFatTreeNew.pod[1].aggregateSwitch[0].eth[0].mac packetReceivedFromUpper:vector(packetBytes) ETV
attr interpolationmode none
attr source packetReceivedFromUpper
attr title "packet bytes from higher layer, vector(packetBytes)"
vector 188 KFatTreeNew.pod[1].aggregateSwitch[0].eth[0].mac.queue packetPushed:vector(packetBytes) ETV
attr interpolationmode none
attr title "packet pushed, vector(packetBytes)"
vector 189 KFatTreeNew.pod[1].aggregateSwitch[0].eth[0].mac.queue queueLength:vector ETV
attr interpolationmode sample-hold
attr source "count(packetPushed) - count(packetPopped) - count(packetRemoved) - count(packetDropped)"
attr title "queue length, vector"
vector 190 KFatTreeNew.pod[1].aggregateSwitch[0].eth[0].mac.queue packetPopped:vector(packetBytes) ETV
attr interpolationmode none
attr title "packet popped, vector(packetBytes)"
vector 191 KFatTreeNew.pod[1].aggregateSwitch[0].eth[0].mac.queue queueingTime:vector ETV
attr interpolationmode none
attr source queueingTime(packetPopped)
attr title "queueing times, vector"
attr unit s
vector 192 KFatTreeNew.coreSwitch[0].eth[1].mac rxPkOk:vector(packetBytes) ETV
attr interpolationmode none
attr source rxPkOk
attr title "packets received OK, vector(packetBytes)"
vector 193 KFatTreeNew.coreSwitch[0].eth[1].mac passedUpPk:vector(packetBytes) ETV
attr interpolationmode none
attr source packetSentToUpper
attr title "packets passed to higher layer, vector(packetBytes)"
vector 194 KFatTreeNew.pod[1].aggregateSwitch[0].eth[0].mac txPk:vector(packetBytes) ETV
attr interpolationmode none
attr source packetSentToLower
attr title "packets transmitted, vector(packetBytes)"
vector 195 KFatTreeNew.coreSwitch[0].eth[1].encap decapPk:vector(packetBytes) ETV
attr interpolationmode none
attr source decapPk
attr title "packets decapsulated, vector(packetBytes)"
vector 196 KFatTreeNew.pod[1].aggregateSwitch[0].ipv4.arp arpRequestSent:vector(packetBytes) ETV
attr source arpRequestSent
attr title "ARP request sent, vector(packetBytes)"
vector 197 KFatTreeNew.pod[1].aggregateSwitch[0].eth[2].encap encapPk:vector(packetBytes) ETV
attr interpolationmode none
attr source encapPk
attr title "packets encapsulated, vector(packetBytes)"
vector 198 KFatTreeNew.pod[1].aggregateSwitch[0].eth[2].mac packetReceivedFromUpper:vector(packetBytes) ETV
attr interpolationmode none
attr source packetReceivedFromUpper
attr title "packet bytes from higher layer, vector(packetBytes)"
vector 199 KFatTreeNew.pod[1].aggregateSwitch[0].eth[2].mac.queue packetPushed:vector(packetBytes) ETV
attr interpolationmode none
attr title "packet pushed, vector(packetBytes)"
vector 200 KFatTreeNew.pod[1].aggregateSwitch[0].eth[2].mac.queue queueLength:vector ETV
attr interpolationmode sample-hold
attr source "count(packetPushed) - count(packetPopped) - count(packetRemoved) - count(packetDropped)"
attr title "queue length, vector"
vector 201 KFatTreeNew.pod[1].aggregateSwitch[0].eth[2].mac.queue packetPopped:vector(packetBytes) ETV
attr interpolationmode none
attr title "packet popped, vector(packetBytes)"
vector 202 KFatTreeNew.pod[1].aggregateSwitch[0].eth[2].mac.queue queueingTime:vector ETV
attr interpolationmode none
attr source queueingTime(packetPopped)
attr title "queueing times, vector"
attr unit s
vector 203 KFatTreeNew.pod[1].edgeSwitch[0].eth[2].mac rxPkOk:vector(packetBytes) ETV
attr interpolationmode none
attr source rxPkOk
attr title "packets received OK, vector(packetBytes)"
vector 204 KFatTreeNew.pod[1].edgeSwitch[0].eth[2].mac passedUpPk:vector(packetBytes) ETV
attr interpolationmode none
attr source packetSentToUpper
attr title "packets passed to higher layer, vector(packetBytes)"
vector 205 KFatTreeNew.pod[1].aggregateSwitch[0].eth[2].mac txPk:vector(packetBytes) ETV
attr interpolationmode none
attr source packetSentToLower
attr title "packets transmitted, vector(packetBytes)"
vector 206 KFatTreeNew.pod[1].edgeSwitch[0].eth[2].encap decapPk:vector(packetBytes) ETV
attr interpolationmode none
attr source decapPk
attr title "packets decapsulated, vector(packetBytes)"
vector 207 KFatTreeNew.pod[1].edgeSwitch[0].ipv4.arp arpReplySent:vector(packetBytes) ETV
attr source arpReplySent
attr title "ARP replies sent, vector(packetBytes)"
vector 208 KFatTreeNew.pod[1].edgeSwitch[0].eth[2].encap encapPk:vector(packetBytes) ETV
attr interpolationmode none
attr source encapPk
attr title "packets encapsulated, vector(packetBytes)"
vector 209 KFatTreeNew.pod[1].edgeSwitch[0].eth[2].mac packetReceivedFromUpper:vector(packetBytes) ETV
attr interpolationmode none
attr source packetReceivedFromUpper
attr title "packet bytes from higher layer, vector(packetBytes)"
vector 210 KFatTreeNew.pod[1].edgeSwitch[0].eth[2].mac.queue packetPushed:vector(packetBytes) ETV
attr interpolationmode none
attr title "packet pushed, vector(packetBytes)"
vector 211 KFatTreeNew.pod[1].edgeSwitch[0].eth[2].mac.queue queueLength:vector ETV
attr interpolationmode sample-hold
attr source "count(packetPushed) - count(packetPopped) - count(packetRemoved) - count(packetDropped)"
attr title "queue length, vector"
vector 212 KFatTreeNew.pod[1].edgeSwitch[0].eth[2].mac.queue packetPopped:vector(packetBytes) ETV
attr interpolationmode none
attr title "packet popped, vector(packetBytes)"
vector 213 KFatTreeNew.pod[1].edgeSwitch[0].eth[2].mac.queue queueingTime:vector ETV
attr interpolationmode none
attr source queueingTime(packetPopped)
attr title "queueing times, vector"
attr unit s
vector 214 KFatTreeNew.pod[1].aggregateSwitch[0].eth[2].mac rxPkOk:vector(packetBytes) ETV
attr interpolationmode none
attr source rxPkOk
attr title "packets received OK, vector(packetBytes)"
vector 215 KFatTreeNew.pod[1].aggregateSwitch[0].eth[2].mac passedUpPk:vector(packetBytes) ETV
attr interpolationmode none
attr source packetSentToUpper
attr title "packets passed to higher layer, vector(packetBytes)"
vector 216 KFatTreeNew.pod[1].edgeSwitch[0].eth[2].mac txPk:vector(packetBytes) ETV
attr interpolationmode none
attr source packetSentToLower
attr title "packets transmitted, vector(packetBytes)"
vector 217 KFatTreeNew.pod[1].aggregateSwitch[0].eth[2].encap decapPk:vector(packetBytes) ETV
attr interpolationmode none
attr source decapPk
attr title "packets decapsulated, vector(packetBytes)"
vector 218 KFatTreeNew.pod[1].edgeSwitch[0].ipv4.arp arpRequestSent:vector(packetBytes) ETV
attr source arpRequestSent
attr title "ARP request sent, vector(packetBytes)"
vector 219 KFatTreeNew.pod[1].edgeSwitch[0].eth[0].encap encapPk:vector(packetBytes) ETV
attr interpolationmode none
attr source encapPk
attr title "packets encapsulated, vector(packetBytes)"
vector 220 KFatTreeNew.pod[1].edgeSwitch[0].eth[0].mac packetReceivedFromUpper:vector(packetBytes) ETV
attr interpolationmode none
attr source packetReceivedFromUpper
attr title "packet bytes from higher layer, vector(packetBytes)"
vector 221 KFatTreeNew.pod[1].edgeSwitch[0].eth[0].mac.queue packetPushed:vector(packetBytes) ETV
attr interpolationmode none
attr title "packet pushed, vector(packetBytes)"
vector 222 KFatTreeNew.pod[1].edgeSwitch[0].eth[0].mac.queue queueLength:vector ETV
attr interpolationmode sample-hold
attr source "count(packetPushed) - count(packetPopped) - count(packetRemoved) - count(packetDropped)"
attr title "queue length, vector"
vector 223 KFatTreeNew.pod[1].edgeSwitch[0].eth[0].mac.queue packetPopped:vector(packetBytes) ETV
attr interpolationmode none
attr title "packet popped, vector(packetBytes)"
vector 224 KFatTreeNew.pod[1].edgeSwitch[0].eth[0].mac.queue queueingTime:vector ETV
attr interpolationmode none
attr source queueingTime(packetPopped)
attr title "queueing times, vector"
attr unit s
vector 225 KFatTreeNew.hosts.replica[2].eth[0].mac rxPkOk:vector(packetBytes) ETV
attr interpolationmode none
attr source rxPkOk
attr title "packets received OK, vector(packetBytes)"
vector 226 KFatTreeNew.hosts.replica[2].eth[0].mac passedUpPk:vector(packetBytes) ETV
attr interpolationmode none
attr source packetSentToUpper
attr title "packets passed to higher layer, vector(packetBytes)"
vector 227 KFatTreeNew.pod[1].edgeSwitch[0].eth[0].mac txPk:vector(packetBytes) ETV
attr interpolationmode none
attr source packetSentToLower
attr title "packets transmitted, vector(packetBytes)"
vector 228 KFatTreeNew.hosts.replica[2].eth[0].encap decapPk:vector(packetBytes) ETV
attr interpolationmode none
attr source decapPk
attr title "packets decapsulated, vector(packetBytes)"
vector 229 KFatTreeNew.hosts.replica[2].ipv4.arp arpReplySent:vector(packetBytes) ETV
attr source arpReplySent
attr title "ARP replies sent, vector(packetBytes)"
vector 230 KFatTreeNew.hosts.replica[2].eth[0].encap encapPk:vector(packetBytes) ETV
attr interpolationmode none
attr source encapPk
attr title "packets encapsulated, vector(packetBytes)"
vector 231 KFatTreeNew.hosts.replica[2].eth[0].mac packetReceivedFromUpper:vector(packetBytes) ETV
attr interpolationmode none
attr source packetReceivedFromUpper
attr title "packet bytes from higher layer, vector(packetBytes)"
vector 232 KFatTreeNew.hosts.replica[2].eth[0].mac.queue packetPushed:vector(packetBytes) ETV
attr interpolationmode none
attr title "packet pushed, vector(packetBytes)"
vector 233 KFatTreeNew.hosts.replica[2].eth[0].mac.queue queueLength:vector ETV
attr interpolationmode sample-hold
attr source "count(packetPushed) - count(packetPopped) - count(packetRemoved) - count(packetDropped)"
attr title "queue length, vector"
vector 234 KFatTreeNew.hosts.replica[2].eth[0].mac.queue packetPopped:vector(packetBytes) ETV
attr interpolationmode none
attr title "packet popped, vector(packetBytes)"
vector 235 KFatTreeNew.hosts.replica[2].eth[0].mac.queue queueingTime:vector ETV
attr interpolationmode none
attr source queueingTime(packetPopped)
attr title "queueing times, vector"
attr unit s
vector 236 KFatTreeNew.pod[1].edgeSwitch[0].eth[0].mac rxPkOk:vector(packetBytes) ETV
attr interpolationmode none
attr source rxPkOk
attr title "packets received OK, vector(packetBytes)"
vector 237 KFatTreeNew.pod[1].edgeSwitch[0].eth[0].mac passedUpPk:vector(packetBytes) ETV
attr interpolationmode none
attr source packetSentToUpper
attr title "packets passed to higher layer, vector(packetBytes)"
vector 238 KFatTreeNew.hosts.replica[2].eth[0].mac txPk:vector(packetBytes) ETV
attr interpolationmode none
attr source packetSentToLower
attr title "packets transmitted, vector(packetBytes)"
vector 239 KFatTreeNew.pod[1].edgeSwitch[0].eth[0].encap decapPk:vector(packetBytes) ETV
attr interpolationmode none
attr source decapPk
attr title "packets decapsulated, vector(packetBytes)"
vector 240 KFatTreeNew.pod[1].aggregateSwitch[0].eth[3].encap encapPk:vector(packetBytes) ETV
attr interpolationmode none
attr source encapPk
attr title "packets encapsulated, vector(packetBytes)"
vector 241 KFatTreeNew.pod[1].aggregateSwitch[0].eth[3].mac packetReceivedFromUpper:vector(packetBytes) ETV
attr interpolationmode none
attr source packetReceivedFromUpper
attr title "packet bytes from higher layer, vector(packetBytes)"
vector 242 KFatTreeNew.pod[1].aggregateSwitch[0].eth[3].mac.queue packetPushed:vector(packetBytes) ETV
attr interpolationmode none
attr title "packet pushed, vector(packetBytes)"
vector 243 KFatTreeNew.pod[1].aggregateSwitch[0].eth[3].mac.queue queueLength:vector ETV
attr interpolationmode sample-hold
attr source "count(packetPushed) - count(packetPopped) - count(packetRemoved) - count(packetDropped)"
attr title "queue length, vector"
vector 244 KFatTreeNew.pod[1].aggregateSwitch[0].eth[3].mac.queue packetPopped:vector(packetBytes) ETV
attr interpolationmode none
attr title "packet popped, vector(packetBytes)"
vector 245 KFatTreeNew.pod[1].aggregateSwitch[0].eth[3].mac.queue queueingTime:vector ETV
attr interpolationmode none
attr source queueingTime(packetPopped)
attr title "queueing times, vector"
attr unit s
vector 246 KFatTreeNew.pod[1].edgeSwitch[1].eth[2].mac rxPkOk:vector(packetBytes) ETV
attr interpolationmode none
attr source rxPkOk
attr title "packets received OK, vector(packetBytes)"
vector 247 KFatTreeNew.pod[1].edgeSwitch[1].eth[2].mac passedUpPk:vector(packetBytes) ETV
attr interpolationmode none
attr source packetSentToUpper
attr title "packets passed to higher layer, vector(packetBytes)"
vector 248 KFatTreeNew.pod[1].aggregateSwitch[0].eth[3].mac txPk:vector(packetBytes) ETV
attr interpolationmode none
attr source packetSentToLower
attr title "packets transmitted, vector(packetBytes)"
vector 249 KFatTreeNew.pod[1].edgeSwitch[1].eth[2].encap decapPk:vector(packetBytes) ETV
attr interpolationmode none
attr source decapPk
attr title "packets decapsulated, vector(packetBytes)"
vector 250 KFatTreeNew.pod[1].edgeSwitch[1].ipv4.arp arpReplySent:vector(packetBytes) ETV
attr source arpReplySent
attr title "ARP replies sent, vector(packetBytes)"
vector 251 KFatTreeNew.pod[1].edgeSwitch[1].eth[2].encap encapPk:vector(packetBytes) ETV
attr interpolationmode none
attr source encapPk
attr title "packets encapsulated, vector(packetBytes)"
vector 252 KFatTreeNew.pod[1].edgeSwitch[1].eth[2].mac packetReceivedFromUpper:vector(packetBytes) ETV
attr interpolationmode none
attr source packetReceivedFromUpper
attr title "packet bytes from higher layer, vector(packetBytes)"
vector 253 KFatTreeNew.pod[1].edgeSwitch[1].eth[2].mac.queue packetPushed:vector(packetBytes) ETV
attr interpolationmode none
attr title "packet pushed, vector(packetBytes)"
vector 254 KFatTreeNew.pod[1].edgeSwitch[1].eth[2].mac.queue queueLength:vector ETV
attr interpolationmode sample-hold
attr source "count(packetPushed) - count(packetPopped) - count(packetRemoved) - count(packetDropped)"
attr title "queue length, vector"
vector 255 KFatTreeNew.pod[1].edgeSwitch[1].eth[2].mac.queue packetPopped:vector(packetBytes) ETV
attr interpolationmode none
attr title "packet popped, vector(packetBytes)"
vector 256 KFatTreeNew.pod[1].edgeSwitch[1].eth[2].mac.queue queueingTime:vector ETV
attr interpolationmode none
attr source queueingTime(packetPopped)
attr title "queueing times, vector"
attr unit s
vector 257 KFatTreeNew.pod[1].aggregateSwitch[0].eth[3].mac rxPkOk:vector(packetBytes) ETV
attr interpolationmode none
attr source rxPkOk
attr title "packets received OK, vector(packetBytes)"
vector 258 KFatTreeNew.pod[1].aggregateSwitch[0].eth[3].mac passedUpPk:vector(packetBytes) ETV
attr interpolationmode none
attr source packetSentToUpper
attr title "packets passed to higher layer, vector(packetBytes)"
vector 259 KFatTreeNew.pod[1].edgeSwitch[1].eth[2].mac txPk:vector(packetBytes) ETV
attr interpolationmode none
attr source packetSentToLower
attr title "packets transmitted, vector(packetBytes)"
vector 260 KFatTreeNew.pod[1].aggregateSwitch[0].eth[3].encap decapPk:vector(packetBytes) ETV
attr interpolationmode none
attr source decapPk
attr title "packets decapsulated, vector(packetBytes)"
vector 261 KFatTreeNew.pod[1].edgeSwitch[1].ipv4.arp arpRequestSent:vector(packetBytes) ETV
attr source arpRequestSent
attr title "ARP request sent, vector(packetBytes)"
vector 262 KFatTreeNew.pod[1].edgeSwitch[1].eth[0].encap encapPk:vector(packetBytes) ETV
attr interpolationmode none
attr source encapPk
attr title "packets encapsulated, vector(packetBytes)"
vector 263 KFatTreeNew.pod[1].edgeSwitch[1].eth[0].mac packetReceivedFromUpper:vector(packetBytes) ETV
attr interpolationmode none
attr source packetReceivedFromUpper
attr title "packet bytes from higher layer, vector(packetBytes)"
vector 264 KFatTreeNew.pod[1].edgeSwitch[1].eth[0].mac.queue packetPushed:vector(packetBytes) ETV
attr interpolationmode none
attr title "packet pushed, vector(packetBytes)"
vector 265 KFatTreeNew.pod[1].edgeSwitch[1].eth[0].mac.queue queueLength:vector ETV
attr interpolationmode sample-hold
attr source "count(packetPushed) - count(packetPopped) - count(packetRemoved) - count(packetDropped)"
attr title "queue length, vector"
vector 266 KFatTreeNew.pod[1].edgeSwitch[1].eth[0].mac.queue packetPopped:vector(packetBytes) ETV
attr interpolationmode none
attr title "packet popped, vector(packetBytes)"
vector 267 KFatTreeNew.pod[1].edgeSwitch[1].eth[0].mac.queue queueingTime:vector ETV
attr interpolationmode none
attr source queueingTime(packetPopped)
attr title "queueing times, vector"
attr unit s
vector 268 KFatTreeNew.hosts.replica[3].eth[0].mac rxPkOk:vector(packetBytes) ETV
attr interpolationmode none
attr source rxPkOk
attr title "packets received OK, vector(packetBytes)"
vector 269 KFatTreeNew.hosts.replica[3].eth[0].mac passedUpPk:vector(packetBytes) ETV
attr interpolationmode none
attr source packetSentToUpper
attr title "packets passed to higher layer, vector(packetBytes)"
vector 270 KFatTreeNew.pod[1].edgeSwitch[1].eth[0].mac txPk:vector(packetBytes) ETV
attr interpolationmode none
attr source packetSentToLower
attr title "packets transmitted, vector(packetBytes)"
vector 271 KFatTreeNew.hosts.replica[3].eth[0].encap decapPk:vector(packetBytes) ETV
attr interpolationmode none
attr source decapPk
attr title "packets decapsulated, vector(packetBytes)"
vector 272 KFatTreeNew.hosts.replica[3].ipv4.arp arpReplySent:vector(packetBytes) ETV
attr source arpReplySent
attr title "ARP replies sent, vector(packetBytes)"
vector 273 KFatTreeNew.hosts.replica[3].eth[0].encap encapPk:vector(packetBytes) ETV
attr interpolationmode none
attr source encapPk
attr title "packets encapsulated, vector(packetBytes)"
vector 274 KFatTreeNew.hosts.replica[3].eth[0].mac packetReceivedFromUpper:vector(packetBytes) ETV
attr interpolationmode none
attr source packetReceivedFromUpper
attr title "packet bytes from higher layer, vector(packetBytes)"
vector 275 KFatTreeNew.hosts.replica[3].eth[0].mac.queue packetPushed:vector(packetBytes) ETV
attr interpolationmode none
attr title "packet pushed, vector(packetBytes)"
vector 276 KFatTreeNew.hosts.replica[3].eth[0].mac.queue queueLength:vector ETV
attr interpolationmode sample-hold
attr source "count(packetPushed) - count(packetPopped) - count(packetRemoved) - count(packetDropped)"
attr title "queue length, vector"
vector 277 KFatTreeNew.hosts.replica[3].eth[0].mac.queue packetPopped:vector(packetBytes) ETV
attr interpolationmode none
attr title "packet popped, vector(packetBytes)"
vector 278 KFatTreeNew.hosts.replica[3].eth[0].mac.queue queueingTime:vector ETV
attr interpolationmode none
attr source queueingTime(packetPopped)
attr title "queueing times, vector"
attr unit s
vector 279 KFatTreeNew.pod[1].edgeSwitch[1].eth[0].mac rxPkOk:vector(packetBytes) ETV
attr interpolationmode none
attr source rxPkOk
attr title "packets received OK, vector(packetBytes)"
vector 280 KFatTreeNew.pod[1].edgeSwitch[1].eth[0].mac passedUpPk:vector(packetBytes) ETV
attr interpolationmode none
attr source packetSentToUpper
attr title "packets passed to higher layer, vector(packetBytes)"
vector 281 KFatTreeNew.hosts.replica[3].eth[0].mac txPk:vector(packetBytes) ETV
attr interpolationmode none
attr source packetSentToLower
attr title "packets transmitted, vector(packetBytes)"
vector 282 KFatTreeNew.pod[1].edgeSwitch[1].eth[0].encap decapPk:vector(packetBytes) ETV
attr interpolationmode none
attr source decapPk
attr title "packets decapsulated, vector(packetBytes)"
vector 283 KFatTreeNew.hosts.replica[2].udp packetReceived:vector(packetBytes) ETV
attr interpolationmode none
attr source packetReceived
attr title "packets received, vector(packetBytes)"
vector 284 KFatTreeNew.hosts.replica[2].udp passedUpPk:vector(count) ETV
attr interpolationmode none
attr source packetSentToUpper
attr title "packets passed up, vector(count)"
vector 285 KFatTreeNew.hosts.replica[2].app[0] packetReceived:vector(packetBytes) ETV
attr interpolationmode none
attr source packetReceived
attr title "packets received, vector(packetBytes)"
vector 286 KFatTreeNew.hosts.replica[2].app[0] throughput:vector ETV
attr source throughput(packetReceived)
attr title "throughput, vector"
attr unit bps
vector 287 KFatTreeNew.hosts.replica[2].app[0] endToEndDelay:vector ETV
attr interpolationmode none
attr source dataAge(packetReceived)
attr title "end-to-end delay, vector"
attr unit s
vector 288 KFatTreeNew.hosts.replica[2].app[0] rcvdPkSeqNo:vector ETV
attr interpolationmode none
attr source appPkSeqNo(packetReceived)
attr title "received packet sequence number, vector"
vector 289 KFatTreeNew.hosts.replica[2].udp packetSent:vector(packetBytes) ETV
attr interpolationmode none
attr source packetSent
attr title "packets sent, vector(packetBytes)"
vector 290 KFatTreeNew.pod[1].edgeSwitch[0].eth[1].encap encapPk:vector(packetBytes) ETV
attr interpolationmode none
attr source encapPk
attr title "packets encapsulated, vector(packetBytes)"
vector 291 KFatTreeNew.pod[1].edgeSwitch[0].eth[1].mac packetReceivedFromUpper:vector(packetBytes) ETV
attr interpolationmode none
attr source packetReceivedFromUpper
attr title "packet bytes from higher layer, vector(packetBytes)"
vector 292 KFatTreeNew.pod[1].edgeSwitch[0].eth[1].mac.queue packetPushed:vector(packetBytes) ETV
attr interpolationmode none
attr title "packet pushed, vector(packetBytes)"
vector 293 KFatTreeNew.pod[1].edgeSwitch[0].eth[1].mac.queue queueLength:vector ETV
attr interpolationmode sample-hold
attr source "count(packetPushed) - count(packetPopped) - count(packetRemoved) - count(packetDropped)"
attr title "queue length, vector"
vector 294 KFatTreeNew.pod[1].edgeSwitch[0].eth[1].mac.queue packetPopped:vector(packetBytes) ETV
attr interpolationmode none
attr title "packet popped, vector(packetBytes)"
vector 295 KFatTreeNew.pod[1].edgeSwitch[0].eth[1].mac.queue queueingTime:vector ETV
attr interpolationmode none
attr source queueingTime(packetPopped)
attr title "queueing times, vector"
attr unit s
vector 296 KFatTreeNew.hosts.replica[4].eth[0].mac rxPkOk:vector(packetBytes) ETV
attr interpolationmode none
attr source rxPkOk
attr title "packets received OK, vector(packetBytes)"
vector 297 KFatTreeNew.hosts.replica[4].eth[0].mac passedUpPk:vector(packetBytes) ETV
attr interpolationmode none
attr source packetSentToUpper
attr title "packets passed to higher layer, vector(packetBytes)"
vector 298 KFatTreeNew.pod[1].edgeSwitch[0].eth[1].mac txPk:vector(packetBytes) ETV
attr interpolationmode none
attr source packetSentToLower
attr title "packets transmitted, vector(packetBytes)"
vector 299 KFatTreeNew.hosts.replica[4].eth[0].encap decapPk:vector(packetBytes) ETV
attr interpolationmode none
attr source decapPk
attr title "packets decapsulated, vector(packetBytes)"
vector 300 KFatTreeNew.hosts.replica[4].ipv4.arp arpReplySent:vector(packetBytes) ETV
attr source arpReplySent
attr title "ARP replies sent, vector(packetBytes)"
vector 301 KFatTreeNew.hosts.replica[4].eth[0].encap encapPk:vector(packetBytes) ETV
attr interpolationmode none
attr source encapPk
attr title "packets encapsulated, vector(packetBytes)"
vector 302 KFatTreeNew.hosts.replica[4].eth[0].mac packetReceivedFromUpper:vector(packetBytes) ETV
attr interpolationmode none
attr source packetReceivedFromUpper
attr title "packet bytes from higher layer, vector(packetBytes)"
vector 303 KFatTreeNew.hosts.replica[4].eth[0].mac.queue packetPushed:vector(packetBytes) ETV
attr interpolationmode none
attr title "packet pushed, vector(packetBytes)"
vector 304 KFatTreeNew.hosts.replica[4].eth[0].mac.queue queueLength:vector ETV
attr interpolationmode sample-hold
attr source "count(packetPushed) - count(packetPopped) - count(packetRemoved) - count(packetDropped)"
attr title "queue length, vector"
vector 305 KFatTreeNew.hosts.replica[4].eth[0].mac.queue packetPopped:vector(packetBytes) ETV
attr interpolationmode none
attr title "packet popped, vector(packetBytes)"
vector 306 KFatTreeNew.hosts.replica[4].eth[0].mac.queue queueingTime:vector ETV
attr interpolationmode none
attr source queueingTime(packetPopped)
attr title "queueing times, vector"
attr unit s
vector 307 KFatTreeNew.pod[1].edgeSwitch[0].eth[1].mac rxPkOk:vector(packetBytes) ETV
attr interpolationmode none
attr source rxPkOk
attr title "packets received OK, vector(packetBytes)"
vector 308 KFatTreeNew.pod[1].edgeSwitch[0].eth[1].mac passedUpPk:vector(packetBytes) ETV
attr interpolationmode none
attr source packetSentToUpper
attr title "packets passed to higher layer, vector(packetBytes)"
vector 309 KFatTreeNew.hosts.replica[4].eth[0].mac txPk:vector(packetBytes) ETV
attr interpolationmode none
attr source packetSentToLower
attr title "packets transmitted, vector(packetBytes)"
vector 310 KFatTreeNew.pod[1].edgeSwitch[0].eth[1].encap decapPk:vector(packetBytes) ETV
attr interpolationmode none
attr source decapPk
attr title "packets decapsulated, vector(packetBytes)"
vector 311 KFatTreeNew.hosts.replica[3].udp packetReceived:vector(packetBytes) ETV
attr interpolationmode none
attr source packetReceived
attr title "packets received, vector(packetBytes)"
vector 312 KFatTreeNew.hosts.replica[3].udp passedUpPk:vector(count) ETV
attr interpolationmode none
attr source packetSentToUpper
attr title "packets passed up, vector(count)"
vector 313 KFatTreeNew.hosts.replica[3].app[0] packetReceived:vector(packetBytes) ETV
attr interpolationmode none
attr source packetReceived
attr title "packets received, vector(packetBytes)"
vector 314 KFatTreeNew.hosts.replica[3].app[0] throughput:vector ETV
attr source throughput(packetReceived)
attr title "throughput, vector"
attr unit bps
vector 315 KFatTreeNew.hosts.replica[3].app[0] endToEndDelay:vector ETV
attr interpolationmode none
attr source dataAge(packetReceived)
attr title "end-to-end delay, vector"
attr unit s
vector 316 KFatTreeNew.hosts.replica[3].app[0] rcvdPkSeqNo:vector ETV
attr interpolationmode none
attr source appPkSeqNo(packetReceived)
attr title "received packet sequence number, vector"
vector 317 KFatTreeNew.hosts.replica[3].udp packetSent:vector(packetBytes) ETV
attr interpolationmode none
attr source packetSent
attr title "packets sent, vector(packetBytes)"
vector 318 KFatTreeNew.pod[1].edgeSwitch[1].eth[1].encap encapPk:vector(packetBytes) ETV
attr interpolationmode none
attr source encapPk
attr title "packets encapsulated, vector(packetBytes)"
vector 319 KFatTreeNew.pod[1].edgeSwitch[1].eth[1].mac packetReceivedFromUpper:vector(packetBytes) ETV
attr interpolationmode none
attr source packetReceivedFromUpper
attr title "packet bytes from higher layer, vector(packetBytes)"
vector 320 KFatTreeNew.pod[1].edgeSwitch[1].eth[1].mac.queue packetPushed:vector(packetBytes) ETV
attr interpolationmode none
attr title "packet pushed, vector(packetBytes)"
vector 321 KFatTreeNew.pod[1].edgeSwitch[1].eth[1].mac.queue queueLength:vector ETV
attr interpolationmode sample-hold
attr source "count(packetPushed) - count(packetPopped) - count(packetRemoved) - count(packetDropped)"
attr title "queue length, vector"
vector 322 KFatTreeNew.pod[1].edgeSwitch[1].eth[1].mac.queue packetPopped:vector(packetBytes) ETV
attr interpolationmode none
attr title "packet popped, vector(packetBytes)"
vector 323 KFatTreeNew.pod[1].edgeSwitch[1].eth[1].mac.queue queueingTime:vector ETV
attr interpolationmode none
attr source queueingTime(packetPopped)
attr title "queueing times, vector"
attr unit s
vector 324 KFatTreeNew.hosts.replica[5].eth[0].mac rxPkOk:vector(packetBytes) ETV
attr interpolationmode none
attr source rxPkOk
attr title "packets received OK, vector(packetBytes)"
vector 325 KFatTreeNew.hosts.replica[5].eth[0].mac passedUpPk:vector(packetBytes) ETV
attr interpolationmode none
attr source packetSentToUpper
attr title "packets passed to higher layer, vector(packetBytes)"
vector 326 KFatTreeNew.pod[1].edgeSwitch[1].eth[1].mac txPk:vector(packetBytes) ETV
attr interpolationmode none
attr source packetSentToLower
attr title "packets transmitted, vector(packetBytes)"
vector 327 KFatTreeNew.hosts.replica[5].eth[0].encap decapPk:vector(packetBytes) ETV
attr interpolationmode none
attr source decapPk
attr title "packets decapsulated, vector(packetBytes)"
vector 328 KFatTreeNew.hosts.replica[5].ipv4.arp arpReplySent:vector(packetBytes) ETV
attr source arpReplySent
attr title "ARP replies sent, vector(packetBytes)"
vector 329 KFatTreeNew.hosts.replica[5].eth[0].encap encapPk:vector(packetBytes) ETV
attr interpolationmode none
attr source encapPk
attr title "packets encapsulated, vector(packetBytes)"
vector 330 KFatTreeNew.hosts.replica[5].eth[0].mac packetReceivedFromUpper:vector(packetBytes) ETV
attr interpolationmode none
attr source packetReceivedFromUpper
attr title "packet bytes from higher layer, vector(packetBytes)"
vector 331 KFatTreeNew.hosts.replica[5].eth[0].mac.queue packetPushed:vector(packetBytes) ETV
attr interpolationmode none
attr title "packet pushed, vector(packetBytes)"
vector 332 KFatTreeNew.hosts.replica[5].eth[0].mac.queue queueLength:vector ETV
attr interpolationmode sample-hold
attr source "count(packetPushed) - count(packetPopped) - count(packetRemoved) - count(packetDropped)"
attr title "queue length, vector"
vector 333 KFatTreeNew.hosts.replica[5].eth[0].mac.queue packetPopped:vector(packetBytes) ETV
attr interpolationmode none
attr title "packet popped, vector(packetBytes)"
vector 334 KFatTreeNew.hosts.replica[5].eth[0].mac.queue queueingTime:vector ETV
attr interpolationmode none
attr source queueingTime(packetPopped)
attr title "queueing times, vector"
attr unit s
vector 335 KFatTreeNew.hosts.replica[4].udp packetReceived:vector(packetBytes) ETV
attr interpolationmode none
attr source packetReceived
attr title "packets received, vector(packetBytes)"
vector 336 KFatTreeNew.hosts.replica[4].udp passedUpPk:vector(count) ETV
attr interpolationmode none
attr source packetSentToUpper
attr title "packets passed up, vector(count)"
vector 337 KFatTreeNew.hosts.replica[4].app[0] packetReceived:vector(packetBytes) ETV
attr interpolationmode none
attr source packetReceived
attr title "packets received, vector(packetBytes)"
vector 338 KFatTreeNew.hosts.replica[4].app[0] throughput:vector ETV
attr source throughput(packetReceived)
attr title "throughput, vector"
attr unit bps
vector 339 KFatTreeNew.hosts.replica[4].app[0] endToEndDelay:vector ETV
attr interpolationmode none
attr source dataAge(packetReceived)
attr title "end-to-end delay, vector"
attr unit s
vector 340 KFatTreeNew.hosts.replica[4].app[0] rcvdPkSeqNo:vector ETV
attr interpolationmode none
attr source appPkSeqNo(packetReceived)
attr title "received packet sequence number, vector"
vector 341 KFatTreeNew.hosts.replica[4].udp packetSent:vector(packetBytes) ETV
attr interpolationmode none
attr source packetSent
attr title "packets sent, vector(packetBytes)"
vector 342 KFatTreeNew.pod[1].edgeSwitch[1].eth[1].mac rxPkOk:vector(packetBytes) ETV
attr interpolationmode none
attr source rxPkOk
attr title "packets received OK, vector(packetBytes)"
vector 343 KFatTreeNew.pod[1].edgeSwitch[1].eth[1].mac passedUpPk:vector(packetBytes) ETV
attr interpolationmode none
attr source packetSentToUpper
attr title "packets passed to higher layer, vector(packetBytes)"
vector 344 KFatTreeNew.hosts.replica[5].eth[0].mac txPk:vector(packetBytes) ETV
attr interpolationmode none
attr source packetSentToLower
attr title "packets transmitted, vector(packetBytes)"
vector 345 KFatTreeNew.pod[1].edgeSwitch[1].eth[1].encap decapPk:vector(packetBytes) ETV
attr interpolationmode none
attr source decapPk
attr title "packets decapsulated, vector(packetBytes)"
vector 346 KFatTreeNew.coreSwitch[0].eth[2].encap encapPk:vector(packetBytes) ETV
attr interpolationmode none
attr source encapPk
attr title "packets encapsulated, vector(packetBytes)"
vector 347 KFatTreeNew.coreSwitch[0].eth[2].mac packetReceivedFromUpper:vector(packetBytes) ETV
attr interpolationmode none
attr source packetReceivedFromUpper
attr title "packet bytes from higher layer, vector(packetBytes)"
vector 348 KFatTreeNew.coreSwitch[0].eth[2].mac.queue packetPushed:vector(packetBytes) ETV
attr interpolationmode none
attr title "packet pushed, vector(packetBytes)"
vector 349 KFatTreeNew.coreSwitch[0].eth[2].mac.queue queueLength:vector ETV
attr interpolationmode sample-hold
attr source "count(packetPushed) - count(packetPopped) - count(packetRemoved) - count(packetDropped)"
attr title "queue length, vector"
vector 350 KFatTreeNew.coreSwitch[0].eth[2].mac.queue packetPopped:vector(packetBytes) ETV
attr interpolationmode none
attr title "packet popped, vector(packetBytes)"
vector 351 KFatTreeNew.coreSwitch[0].eth[2].mac.queue queueingTime:vector ETV
attr interpolationmode none
attr source queueingTime(packetPopped)
attr title "queueing times, vector"
attr unit s
vector 352 KFatTreeNew.pod[2].aggregateSwitch[0].eth[0].mac rxPkOk:vector(packetBytes) ETV
attr interpolationmode none
attr source rxPkOk
attr title "packets received OK, vector(packetBytes)"
vector 353 KFatTreeNew.pod[2].aggregateSwitch[0].eth[0].mac passedUpPk:vector(packetBytes) ETV
attr interpolationmode none
attr source packetSentToUpper
attr title "packets passed to higher layer, vector(packetBytes)"
vector 354 KFatTreeNew.coreSwitch[0].eth[2].mac txPk:vector(packetBytes) ETV
attr interpolationmode none
attr source packetSentToLower
attr title "packets transmitted, vector(packetBytes)"
vector 355 KFatTreeNew.pod[2].aggregateSwitch[0].eth[0].encap decapPk:vector(packetBytes) ETV
attr interpolationmode none
attr source decapPk
attr title "packets decapsulated, vector(packetBytes)"
vector 356 KFatTreeNew.pod[2].aggregateSwitch[0].ipv4.arp arpReplySent:vector(packetBytes) ETV
attr source arpReplySent
attr title "ARP replies sent, vector(packetBytes)"
vector 357 KFatTreeNew.pod[2].aggregateSwitch[0].eth[0].encap encapPk:vector(packetBytes) ETV
attr interpolationmode none
attr source encapPk
attr title "packets encapsulated, vector(packetBytes)"
vector 358 KFatTreeNew.pod[2].aggregateSwitch[0].eth[0].mac packetReceivedFromUpper:vector(packetBytes) ETV
attr interpolationmode none
attr source packetReceivedFromUpper
attr title "packet bytes from higher layer, vector(packetBytes)"
vector 359 KFatTreeNew.pod[2].aggregateSwitch[0].eth[0].mac.queue packetPushed:vector(packetBytes) ETV
attr interpolationmode none
attr title "packet pushed, vector(packetBytes)"
vector 360 KFatTreeNew.pod[2].aggregateSwitch[0].eth[0].mac.queue queueLength:vector ETV
attr interpolationmode sample-hold
attr source "count(packetPushed) - count(packetPopped) - count(packetRemoved) - count(packetDropped)"
attr title "queue length, vector"
vector 361 KFatTreeNew.pod[2].aggregateSwitch[0].eth[0].mac.queue packetPopped:vector(packetBytes) ETV
attr interpolationmode none
attr title "packet popped, vector(packetBytes)"
vector 362 KFatTreeNew.pod[2].aggregateSwitch[0].eth[0].mac.queue queueingTime:vector ETV
attr interpolationmode none
attr source queueingTime(packetPopped)
attr title "queueing times, vector"
attr unit s
vector 363 KFatTreeNew.coreSwitch[0].eth[2].mac rxPkOk:vector(packetBytes) ETV
attr interpolationmode none
attr source rxPkOk
attr title "packets received OK, vector(packetBytes)"
vector 364 KFatTreeNew.coreSwitch[0].eth[2].mac passedUpPk:vector(packetBytes) ETV
attr interpolationmode none
attr source packetSentToUpper
attr title "packets passed to higher layer, vector(packetBytes)"
vector 365 KFatTreeNew.pod[2].aggregateSwitch[0].eth[0].mac txPk:vector(packetBytes) ETV
attr interpolationmode none
attr source packetSentToLower
attr title "packets transmitted, vector(packetBytes)"
vector 366 KFatTreeNew.coreSwitch[0].eth[2].encap decapPk:vector(packetBytes) ETV
attr interpolationmode none
attr source decapPk
attr title "packets decapsulated, vector(packetBytes)"
vector 367 KFatTreeNew.pod[2].aggregateSwitch[0].ipv4.arp arpRequestSent:vector(packetBytes) ETV
attr source arpRequestSent
attr title "ARP request sent, vector(packetBytes)"
vector 368 KFatTreeNew.pod[2].aggregateSwitch[0].eth[2].encap encapPk:vector(packetBytes) ETV
attr interpolationmode none
attr source encapPk
attr title "packets encapsulated, vector(packetBytes)"
vector 369 KFatTreeNew.pod[2].aggregateSwitch[0].eth[2].mac packetReceivedFromUpper:vector(packetBytes) ETV
attr interpolationmode none
attr source packetReceivedFromUpper
attr title "packet bytes from higher layer, vector(packetBytes)"
vector 370 KFatTreeNew.pod[2].aggregateSwitch[0].eth[2].mac.queue packetPushed:vector(packetBytes) ETV
attr interpolationmode none
attr title "packet pushed, vector(packetBytes)"
vector 371 KFatTreeNew.pod[2].aggregateSwitch[0].eth[2].mac.queue queueLength:vector ETV
attr interpolationmode sample-hold
attr source "count(packetPushed) - count(packetPopped) - count(packetRemoved) - count(packetDropped)"
attr title "queue length, vector"
vector 372 KFatTreeNew.pod[2].aggregateSwitch[0].eth[2].mac.queue packetPopped:vector(packetBytes) ETV
attr interpolationmode none
attr title "packet popped, vector(packetBytes)"
vector 373 KFatTreeNew.pod[2].aggregateSwitch[0].eth[2].mac.queue queueingTime:vector ETV
attr interpolationmode none
attr source queueingTime(packetPopped)
attr title "queueing times, vector"
attr unit s
vector 374 KFatTreeNew.pod[2].edgeSwitch[0].eth[2].mac rxPkOk:vector(packetBytes) ETV
attr interpolationmode none
attr source rxPkOk
attr title "packets received OK, vector(packetBytes)"
vector 375 KFatTreeNew.pod[2].edgeSwitch[0].eth[2].mac passedUpPk:vector(packetBytes) ETV
attr interpolationmode none
attr source packetSentToUpper
attr title "packets passed to higher layer, vector(packetBytes)"
vector 376 KFatTreeNew.pod[2].aggregateSwitch[0].eth[2].mac txPk:vector(packetBytes) ETV
attr interpolationmode none
attr source packetSentToLower
attr title "packets transmitted, vector(packetBytes)"
vector 377 KFatTreeNew.pod[2].edgeSwitch[0].eth[2].encap decapPk:vector(packetBytes) ETV
attr interpolationmode none
attr source decapPk
attr title "packets decapsulated, vector(packetBytes)"
vector 378 KFatTreeNew.pod[2].edgeSwitch[0].ipv4.arp arpReplySent:vector(packetBytes) ETV
attr source arpReplySent
attr title "ARP replies sent, vector(packetBytes)"
vector 379 KFatTreeNew.pod[2].edgeSwitch[0].eth[2].encap encapPk:vector(packetBytes) ETV
attr interpolationmode none
attr source encapPk
attr title "packets encapsulated, vector(packetBytes)"
vector 380 KFatTreeNew.pod[2].edgeSwitch[0].eth[2].mac packetReceivedFromUpper:vector(packetBytes) ETV
attr interpolationmode none
attr source packetReceivedFromUpper
attr title "packet bytes from higher layer, vector(packetBytes)"
vector 381 KFatTreeNew.pod[2].edgeSwitch[0].eth[2].mac.queue packetPushed:vector(packetBytes) ETV
attr interpolationmode none
attr title "packet pushed, vector(packetBytes)"
vector 382 KFatTreeNew.pod[2].edgeSwitch[0].eth[2].mac.queue queueLength:vector ETV
attr interpolationmode sample-hold
attr source "count(packetPushed) - count(packetPopped) - count(packetRemoved) - count(packetDropped)"
attr title "queue length, vector"
vector 383 KFatTreeNew.pod[2].edgeSwitch[0].eth[2].mac.queue packetPopped:vector(packetBytes) ETV
attr interpolationmode none
attr title "packet popped, vector(packetBytes)"
vector 384 KFatTreeNew.pod[2].edgeSwitch[0].eth[2].mac.queue queueingTime:vector ETV
attr interpolationmode none
attr source queueingTime(packetPopped)
attr title "queueing times, vector"
attr unit s
vector 385 KFatTreeNew.pod[2].aggregateSwitch[0].eth[2].mac rxPkOk:vector(packetBytes) ETV
attr interpolationmode none
attr source rxPkOk
attr title "packets received OK, vector(packetBytes)"
vector 386 KFatTreeNew.pod[2].aggregateSwitch[0].eth[2].mac passedUpPk:vector(packetBytes) ETV
attr interpolationmode none
attr source packetSentToUpper
attr title "packets passed to higher layer, vector(packetBytes)"
vector 387 KFatTreeNew.pod[2].edgeSwitch[0].eth[2].mac txPk:vector(packetBytes) ETV
attr interpolationmode none
attr source packetSentToLower
attr title "packets transmitted, vector(packetBytes)"
vector 388 KFatTreeNew.pod[2].aggregateSwitch[0].eth[2].encap decapPk:vector(packetBytes) ETV
attr interpolationmode none
attr source decapPk
attr title "packets decapsulated, vector(packetBytes)"
vector 389 KFatTreeNew.pod[2].edgeSwitch[0].ipv4.arp arpRequestSent:vector(packetBytes) ETV
attr source arpRequestSent
attr title "ARP request sent, vector(packetBytes)"
vector 390 KFatTreeNew.pod[2].edgeSwitch[0].eth[0].encap encapPk:vector(packetBytes) ETV
attr interpolationmode none
attr source encapPk
attr title "packets encapsulated, vector(packetBytes)"
vector 391 KFatTreeNew.pod[2].edgeSwitch[0].eth[0].mac packetReceivedFromUpper:vector(packetBytes) ETV
attr interpolationmode none
attr source packetReceivedFromUpper
attr title "packet bytes from higher layer, vector(packetBytes)"
vector 392 KFatTreeNew.pod[2].edgeSwitch[0].eth[0].mac.queue packetPushed:vector(packetBytes) ETV
attr interpolationmode none
attr title "packet pushed, vector(packetBytes)"
vector 393 KFatTreeNew.pod[2].edgeSwitch[0].eth[0].mac.queue queueLength:vector ETV
attr interpolationmode sample-hold
attr source "count(packetPushed) - count(packetPopped) - count(packetRemoved) - count(packetDropped)"
attr title "queue length, vector"
vector 394 KFatTreeNew.pod[2].edgeSwitch[0].eth[0].mac.queue packetPopped:vector(packetBytes) ETV
attr interpolationmode none
attr title "packet popped, vector(packetBytes)"
vector 395 KFatTreeNew.pod[2].edgeSwitch[0].eth[0].mac.queue queueingTime:vector ETV
attr interpolationmode none
attr source queueingTime(packetPopped)
attr title "queueing times, vector"
attr unit s
vector 396 KFatTreeNew.hosts.replica[6].eth[0].mac rxPkOk:vector(packetBytes) ETV
attr interpolationmode none
attr source rxPkOk
attr title "packets received OK, vector(packetBytes)"
vector 397 KFatTreeNew.hosts.replica[6].eth[0].mac passedUpPk:vector(packetBytes) ETV
attr interpolationmode none
attr source packetSentToUpper
attr title "packets passed to higher layer, vector(packetBytes)"
vector 398 KFatTreeNew.pod[2].edgeSwitch[0].eth[0].mac txPk:vector(packetBytes) ETV
attr interpolationmode none
attr source packetSentToLower
attr title "packets transmitted, vector(packetBytes)"
vector 399 KFatTreeNew.hosts.replica[6].eth[0].encap decapPk:vector(packetBytes) ETV
attr interpolationmode none
attr source decapPk
attr title "packets decapsulated, vector(packetBytes)"
[...]
621	2665150 3326 1342 56572 60.00001560128 75.00001533632 124 0 1 62 62
622	2668476 1847 1342 56572 60.00001560128 75.00001533632 62 64 1296 79120 102460672
623	2670323 1663 1342 56572 60.00001560128 75.00001533632 62 0 0 0 0
624	2671986 1817 1344 55531 60.00001565888 74.50003507328 61 64 1296 77824 100781056
625	2673803 1817 1344 55531 60.00001565888 74.50003507328 61 64 1296 77824 100781056
626	2675620 1817 1345 55532 60.00001565888 74.50003507328 61 64 1296 77824 100781056
627	2677437 1817 1346 55533 60.00001565888 74.50003507328 61 46 1278 76726 97999156
628	2679254 27 1347 1347 60.00001565888 60.00001565888 1 28 28 28 784
629	2679281 922 1348 54757 60.00001565888 74.50001637952 31 28 1278 38368 48999304
630	2680203 922 1349 54758 60.00001565888 74.50001637952 31 46 1296 38926 50390596
631	2681125 922 1349 54758 60.00001565888 74.50001637952 31 64 1296 38944 50392576
632	2682047 1662 1349 54758 60.00001565888 74.50001637952 62 0 1 31 31
633	2683709 922 1349 54758 60.00001565888 74.50001637952 31 64 1296 38944 50392576
634	2684631 831 1349 54758 60.00001565888 74.50001637952 31 0 0 0 0
635	2685462 922 1358 54830 60.00001571648 74.50001742272 31 64 1296 38944 50392576
636	2686384 922 1358 54830 60.00001571648 74.50001742272 31 64 1296 38944 50392576
637	2687306 922 1359 54831 60.00001571648 74.50001742272 31 64 1296 38944 50392576
638	2688228 922 1360 54832 60.00001571648 74.50001742272 31 46 1278 38386 49000636
639	2689150 1819 1368 56560 60.0000157184 75.00001532672 61 1258 1258 76738 96536404
640	2690969 1688 1368 56560 60.0000157184 75.00001532672 61 1 61 1891 77531
641	2692657 1819 1369 56561 60.0000157184 75.00001532672 61 1250 1250 76250 95312500
642	2694476 12031 1369 56561 0.1 75 750 0 200000 6000000 1200000000000
643	2706507 2306 1369 56561 60.0000157184 75.00001532672 61 1.303168e-05 2.31808e-05 0.00083002816 1.1497327123251e-08
644	2708813 1636 1369 56561 60.0000157184 75.00001532672 61 0 0 0 0
645	2710449 924 1370 56562 60.0000157184 75.00001532672 31 1258 1258 38998 49059484
646	2711373 1817 1443 55542 60.00001664256 74.50003508288 61 28 1278 76708 97997824
647	2713190 1817 1444 55543 60.00001664256 74.50003508288 61 46 1296 77806 100779076
648	2715007 1817 1444 55543 60.00001664256 74.50003508288 61 64 1296 77824 100781056
649	2716824 3272 1444 55543 60.00001664256 74.50003508288 122 0 1 61 61
650	2720096 1817 1444 55543 60.00001664256 74.50003508288 61 64 1296 77824 100781056
651	2721913 1636 1444 55543 60.00001664256 74.50003508288 61 0 0 0 0
652	2723549 1817 1446 55573 60.00001670016 74.50003612608 61 64 1296 77824 100781056
653	2725366 1817 1446 55573 60.00001670016 74.50003612608 61 64 1296 77824 100781056
654	2727183 1817 1447 55574 60.00001670016 74.50003612608 61 64 1296 77824 100781056
655	2729000 1817 1448 55575 60.00001670016 74.50003612608 61 46 1278 76726 97999156
656	2730817 27 1449 1449 60.00001670016 60.00001670016 1 28 28 28 784
657	2730844 922 1450 54845 60.00001670016 74.50001743232 31 28 1278 38368 48999304
658	2731766 922 1451 54846 60.00001670016 74.50001743232 31 46 1296 38926 50390596
659	2732688 922 1451 54846 60.00001670016 74.50001743232 31 64 1296 38944 50392576
660	2733610 1662 1451 54846 60.00001670016 74.50001743232 62 0 1 31 31
661	2735272 922 1451 54846 60.00001670016 74.50001743232 31 64 1296 38944 50392576
662	2736194 831 1451 54846 60.00001670016 74.50001743232 31 0 0 0 0
663	2737025 922 1453 54890 60.00001675776 74.50001847552 31 64 1296 38944 50392576
664	2737947 922 1453 54890 60.00001675776 74.50001847552 31 64 1296 38944 50392576
665	2738869 922 1454 54891 60.00001675776 74.50001847552 31 64 1296 38944 50392576
666	2739791 922 1455 54892 60.00001675776 74.50001847552 31 46 1278 38386 49000636
667	2740713 1790 1463 55535 60.00001675968 74.50003507328 60 1258 1258 75480 94953840
668	2742503 1661 1463 55535 60.00001675968 74.50003507328 60 1 60 1830 73810
669	2744164 1790 1464 55536 60.00001675968 74.50003507328 60 1250 1250 75000 93750000
670	2745954 11943 1464 54754 0.1 74.5 745 0 200000 5800000 1160000000000
671	2757897 2268 1464 55536 60.00001675968 74.50003507328 60 1.408448e-05 2.42336e-05 0.00088015296 1.3113945939558e-08
672	2760165 1610 1464 55536 60.00001675968 74.50003507328 60 0 0 0 0
673	2761775 895 1465 54755 60.00001675968 74.50001637952 30 1258 1258 37740 47476920
674	2762670 1817 1545 55584 60.00001769536 74.50003613568 61 28 1278 76708 97997824
675	2764487 1817 1546 55585 60.00001769536 74.50003613568 61 46 1296 77806 100779076
676	2766304 1817 1546 55585 60.00001769536 74.50003613568 61 64 1296 77824 100781056
677	2768121 3272 1546 55585 60.00001769536 74.50003613568 122 0 1 61 61
678	2771393 1817 1546 55585 60.00001769536 74.50003613568 61 64 1296 77824 100781056
679	2773210 1636 1546 55585 60.00001769536 74.50003613568 61 0 0 0 0
680	2774846 1817 1548 55587 60.00001775296 74.50003717888 61 64 1296 77824 100781056
681	2776663 1817 1548 55587 60.00001775296 74.50003717888 61 64 1296 77824 100781056
682	2778480 1817 1549 55588 60.00001775296 74.50003717888 61 64 1296 77824 100781056
683	2780297 1817 1550 55589 60.00001775296 74.50003717888 61 46 1278 76726 97999156
684	2782114 27 1551 1551 60.00001775296 60.00001775296 1 28 28 28 784
685	2782141 922 1552 54905 60.00001775296 74.50001848512 31 28 1278 38368 48999304
686	2783063 922 1553 54906 60.00001775296 74.50001848512 31 46 1296 38926 50390596
687	2783985 922 1553 54906 60.00001775296 74.50001848512 31 64 1296 38944 50392576
688	2784907 1662 1553 54906 60.00001775296 74.50001848512 62 0 1 31 31
689	2786569 922 1553 54906 60.00001775296 74.50001848512 31 64 1296 38944 50392576
690	2787491 831 1553 54906 60.00001775296 74.50001848512 31 0 0 0 0
691	2788322 1790 1559 55577 60.00001780096 74.50003612608 60 1258 1258 75480 94953840
692	2790112 1661 1559 55577 60.00001780096 74.50003612608 60 1 60 1830 73810
693	2791773 1790 1560 55578 60.00001780096 74.50003612608 60 1250 1250 75000 93750000
694	2793563 11943 1560 54842 0.1 74.5 745 0 200000 5800000 1160000000000
695	2805506 2269 1560 55578 60.00001780096 74.50003612608 60 1.513728e-05 2.52864e-05 0.00094330944 1.5033347732685e-08
696	2807775 1610 1560 55578 60.00001780096 74.50003612608 60 0 0 0 0
697	2809385 895 1561 54843 60.00001780096 74.50001743232 30 1258 1258 37740 47476920
698	2810280 922 1571 54943 60.00001781056 74.50001952832 31 64 1296 38944 50392576
699	2811202 922 1571 54943 60.00001781056 74.50001952832 31 64 1296 38944 50392576
700	2812124 922 1572 54944 60.00001781056 74.50001952832 31 64 1296 38944 50392576
701	2813046 922 1574 54945 60.00001781056 74.50001952832 31 46 1278 38386 49000636
702	2813968 1790 1647 55591 60.00001885376 74.50003717888 60 1258 1258 75480 94953840
703	2815758 1661 1647 55591 60.00001885376 74.50003717888 60 1 60 1830 73810
704	2817419 1790 1648 55592 60.00001885376 74.50003717888 60 1250 1250 75000 93750000
705	2819209 11943 1648 54902 0.1 74.5 745 0 200000 5800000 1160000000000
706	2831152 2269 1648 55592 60.00001885376 74.50003717888 60 1.619008e-05 2.63392e-05 0.00100647744 1.7086083359949e-08
707	2833421 1610 1648 55592 60.00001885376 74.50003717888 60 0 0 0 0
708	2835031 895 1649 54903 60.00001885376 74.50001848512 30 1258 1258 37740 47476920
47	2835926 29 56592 56592 75.00001563008 75.00001563008 1 1278 1278 1278 1633284
48	2835955 29 56593 56593 75.00001563008 75.00001563008 1 1296 1296 1296 1679616
49	2835984 29 56593 56593 75.00001563008 75.00001563008 1 1296 1296 1296 1679616
50	2836013 52 56593 56593 75.00001563008 75.00001563008 2 0 1 1 1
51	2836065 29 56593 56593 75.00001563008 75.00001563008 1 1296 1296 1296 1679616
52	2836094 26 56593 56593 75.00001563008 75.00001563008 1 0 0 0 0
53	2836120 28 56601 56601 75.0000157344 75.0000157344 1 1296 1296 1296 1679616
54	2836148 28 56601 56601 75.0000157344 75.0000157344 1 1296 1296 1296 1679616
55	2836176 28 56602 56602 75.0000157344 75.0000157344 1 1296 1296 1296 1679616
56	2836204 28 56604 56604 75.0000157344 75.0000157344 1 1278 1278 1278 1633284
58	2836232 29 56613 56613 75.00001597184 75.00001597184 1 1278 1278 1278 1633284
59	2836261 29 56614 56614 75.00001597184 75.00001597184 1 1296 1296 1296 1679616
60	2836290 29 56614 56614 75.00001597184 75.00001597184 1 1296 1296 1296 1679616
61	2836319 52 56614 56614 75.00001597184 75.00001597184 2 0 1 1 1
62	2836371 29 56614 56614 75.00001597184 75.00001597184 1 1296 1296 1296 1679616
63	2836400 26 56614 56614 75.00001597184 75.00001597184 1 0 0 0 0
64	2836426 29 56616 56616 75.00001607616 75.00001607616 1 1296 1296 1296 1679616
65	2836455 29 56616 56616 75.00001607616 75.00001607616 1 1296 1296 1296 1679616
66	2836484 29 56617 56617 75.00001607616 75.00001607616 1 1296 1296 1296 1679616
67	2836513 29 56618 56618 75.00001607616 75.00001607616 1 1278 1278 1278 1633284
69	2836542 28 56606 56606 75.0000157344 75.0000157344 1 1278 1278 1278 1633284
70	2836570 28 56607 56607 75.0000157344 75.0000157344 1 1296 1296 1296 1679616
71	2836598 28 56607 56607 75.0000157344 75.0000157344 1 1296 1296 1296 1679616
72	2836626 50 56607 56607 75.0000157344 75.0000157344 2 0 1 1 1
73	2836676 28 56607 56607 75.0000157344 75.0000157344 1 1296 1296 1296 1679616
74	2836704 25 56607 56607 75.0000157344 75.0000157344 1 0 0 0 0
75	2836729 28 56595 56595 75.0000157248 75.0000157248 1 1296 1296 1296 1679616
76	2836757 28 56595 56595 75.0000157248 75.0000157248 1 1296 1296 1296 1679616
77	2836785 28 56596 56596 75.0000157248 75.0000157248 1 1296 1296 1296 1679616
78	2836813 28 56597 56597 75.0000157248 75.0000157248 1 1278 1278 1278 1633284
83	2836841 27 56615 56615 75.00001598144 75.00001598144 1 14 14 14 196
84	2836868 29 56615 56615 75.00001598144 75.00001598144 1 1296 1296 1296 1679616
85	2836897 36 56615 56615 75.00001598144 75.00001598144 1 1.36864e-05 1.36864e-05 1.36864e-05 1.8731754496e-10
86	2836933 29 56609 56609 75.00001597184 75.00001597184 1 1296 1296 1296 1679616
87	2836962 29 56609 56609 75.00001597184 75.00001597184 1 1296 1296 1296 1679616
88	2836991 29 56610 56610 75.00001597184 75.00001597184 1 1296 1296 1296 1679616
89	2837020 29 56611 56611 75.00001597184 75.00001597184 1 1278 1278 1278 1633284
90	2837049 28 56599 56599 75.0000157248 75.0000157248 1 1258 1258 1258 1582564
91	2837077 27 56599 56599 75.0000157248 75.0000157248 1 460 460 460 211600
92	2837104 28 56600 56600 75.0000157248 75.0000157248 1 1250 1250 1250 1562500
94	2837132 35 56600 56600 75.0000157248 75.0000157248 1 2.50368e-06 2.50368e-06 2.50368e-06 6.2684135424e-12
95	2837167 25 56600 56600 75.0000157248 75.0000157248 1 0 0 0 0
146	2837192 30 56620 56620 75.00001607616 75.00001607616 1 1278 1278 1278 1633284
147	2837222 30 56621 56621 75.00001607616 75.00001607616 1 1296 1296 1296 1679616
148	2837252 30 56621 56621 75.00001607616 75.00001607616 1 1296 1296 1296 1679616
149	2837282 54 56621 56621 75.00001607616 75.00001607616 2 0 1 1 1
150	2837336 30 56621 56621 75.00001607616 75.00001607616 1 1296 1296 1296 1679616
151	2837366 27 56621 56621 75.00001607616 75.00001607616 1 0 0 0 0
159	2837393 30 56623 56623 75.00001618048 75.00001618048 1 1296 1296 1296 1679616
160	2837423 30 56623 56623 75.00001618048 75.00001618048 1 1296 1296 1296 1679616
161	2837453 30 56624 56624 75.00001618048 75.00001618048 1 1296 1296 1296 1679616
162	2837483 30 56625 56625 75.00001618048 75.00001618048 1 1278 1278 1278 1633284
164	2837513 60 56585 56673 75.00001552576 75.00001657856 2 1278 1278 2556 3266568
165	2837573 60 56586 56674 75.00001552576 75.00001657856 2 1296 1296 2592 3359232
166	2837633 60 56586 56674 75.00001552576 75.00001657856 2 1296 1296 2592 3359232
167	2837693 108 56586 56674 75.00001552576 75.00001657856 4 0 1 2 2
168	2837801 60 56586 56674 75.00001552576 75.00001657856 2 1296 1296 2592 3359232
169	2837861 54 56586 56674 75.00001552576 75.00001657856 2 0 0 0 0
170	2837915 30 56588 56588 75.00001563008 75.00001563008 1 1296 1296 1296 1679616
171	2837945 30 56588 56588 75.00001563008 75.00001563008 1 1296 1296 1296 1679616
172	2837975 30 56589 56589 75.00001563008 75.00001563008 1 1296 1296 1296 1679616
173	2838005 30 56590 56590 75.00001563008 75.00001563008 1 1278 1278 1278 1633284
357	2838035 30 56578 56578 75.00001542144 75.00001542144 1 1278 1278 1278 1633284
358	2838065 30 56579 56579 75.00001542144 75.00001542144 1 1296 1296 1296 1679616
359	2838095 30 56579 56579 75.00001542144 75.00001542144 1 1296 1296 1296 1679616
360	2838125 54 56579 56579 75.00001542144 75.00001542144 2 0 1 1 1
361	2838179 30 56579 56579 75.00001542144 75.00001542144 1 1296 1296 1296 1679616
362	2838209 27 56579 56579 75.00001542144 75.00001542144 1 0 0 0 0
363	2838236 30 56581 56581 75.00001552576 75.00001552576 1 1296 1296 1296 1679616
364	2838266 30 56581 56581 75.00001552576 75.00001552576 1 1296 1296 1296 1679616
365	2838296 30 56582 56582 75.00001552576 75.00001552576 1 1296 1296 1296 1679616
366	2838326 30 56583 56583 75.00001552576 75.00001552576 1 1278 1278 1278 1633284
524	2838356 30 56627 56627 75.00001618048 75.00001618048 1 1278 1278 1278 1633284
525	2838386 30 56628 56628 75.00001618048 75.00001618048 1 1296 1296 1296 1679616
526	2838416 30 56628 56628 75.00001618048 75.00001618048 1 1296 1296 1296 1679616
527	2838446 54 56628 56628 75.00001618048 75.00001618048 2 0 1 1 1
528	2838500 30 56628 56628 75.00001618048 75.00001618048 1 1296 1296 1296 1679616
529	2838530 27 56628 56628 75.00001618048 75.00001618048 1 0 0 0 0
530	2838557 29 56630 56630 75.0000162848 75.0000162848 1 1296 1296 1296 1679616
531	2838586 29 56630 56630 75.0000162848 75.0000162848 1 1296 1296 1296 1679616
532	2838615 29 56631 56631 75.0000162848 75.0000162848 1 1296 1296 1296 1679616
533	2838644 29 56632 56632 75.0000162848 75.0000162848 1 1278 1278 1278 1633284
535	2838673 30 56666 56666 75.00001647424 75.00001647424 1 1278 1278 1278 1633284
536	2838703 30 56667 56667 75.00001647424 75.00001647424 1 1296 1296 1296 1679616
537	2838733 30 56667 56667 75.00001647424 75.00001647424 1 1296 1296 1296 1679616
538	2838763 54 56667 56667 75.00001647424 75.00001647424 2 0 1 1 1
539	2838817 30 56667 56667 75.00001647424 75.00001647424 1 1296 1296 1296 1679616
540	2838847 27 56667 56667 75.00001647424 75.00001647424 1 0 0 0 0
541	2838874 30 56669 56669 75.00001657856 75.00001657856 1 1296 1296 1296 1679616
542	2838904 30 56669 56669 75.00001657856 75.00001657856 1 1296 1296 1296 1679616
543	2838934 30 56670 56670 75.00001657856 75.00001657856 1 1296 1296 1296 1679616
544	2838964 30 56671 56671 75.00001657856 75.00001657856 1 1278 1278 1278 1633284
546	2838994 29 56634 56634 75.0000162848 75.0000162848 1 1278 1278 1278 1633284
547	2839023 29 56635 56635 75.0000162848 75.0000162848 1 1296 1296 1296 1679616
548	2839052 29 56635 56635 75.0000162848 75.0000162848 1 1296 1296 1296 1679616
549	2839081 52 56635 56635 75.0000162848 75.0000162848 2 0 1 1 1
550	2839133 29 56635 56635 75.0000162848 75.0000162848 1 1296 1296 1296 1679616
551	2839162 26 56635 56635 75.0000162848 75.0000162848 1 0 0 0 0
552	2839188 30 56654 56654 75.00001638912 75.00001638912 1 1296 1296 1296 1679616
553	2839218 30 56654 56654 75.00001638912 75.00001638912 1 1296 1296 1296 1679616
554	2839248 30 56655 56655 75.00001638912 75.00001638912 1 1296 1296 1296 1679616
555	2839278 30 56657 56657 75.00001638912 75.00001638912 1 1278 1278 1278 1633284
557	2839308 30 56641 56641 75.00001636992 75.00001636992 1 1278 1278 1278 1633284
558	2839338 30 56642 56642 75.00001636992 75.00001636992 1 1296 1296 1296 1679616
559	2839368 30 56642 56642 75.00001636992 75.00001636992 1 1296 1296 1296 1679616
560	2839398 54 56642 56642 75.00001636992 75.00001636992 2 0 1 1 1
561	2839452 30 56642 56642 75.00001636992 75.00001636992 1 1296 1296 1296 1679616
562	2839482 27 56642 56642 75.00001636992 75.00001636992 1 0 0 0 0
563	2839509 30 56662 56662 75.00001647424 75.00001647424 1 1296 1296 1296 1679616
564	2839539 30 56662 56662 75.00001647424 75.00001647424 1 1296 1296 1296 1679616
565	2839569 30 56663 56663 75.00001647424 75.00001647424 1 1296 1296 1296 1679616
566	2839599 30 56664 56664 75.00001647424 75.00001647424 1 1278 1278 1278 1633284
592	2839629 30 56637 56637 75.00001636992 75.00001636992 1 1296 1296 1296 1679616
593	2839659 30 56637 56637 75.00001636992 75.00001636992 1 1296 1296 1296 1679616
594	2839689 30 56638 56638 75.00001636992 75.00001636992 1 1296 1296 1296 1679616
595	2839719 30 56639 56639 75.00001636992 75.00001636992 1 1278 1278 1278 1633284
624	2839749 30 56643 56643 75.00001637952 75.00001637952 1 1296 1296 1296 1679616
625	2839779 30 56643 56643 75.00001637952 75.00001637952 1 1296 1296 1296 1679616
626	2839809 30 56644 56644 75.00001637952 75.00001637952 1 1296 1296 1296 1679616
627	2839839 30 56646 56646 75.00001637952 75.00001637952 1 1278 1278 1278 1633284
629	2839869 30 56652 56652 75.00001637952 75.00001637952 1 1278 1278 1278 1633284
630	2839899 30 56653 56653 75.00001637952 75.00001637952 1 1296 1296 1296 1679616
631	2839929 30 56653 56653 75.00001637952 75.00001637952 1 1296 1296 1296 1679616
632	2839959 54 56653 56653 75.00001637952 75.00001637952 2 0 1 1 1
633	2840013 30 56653 56653 75.00001637952 75.00001637952 1 1296 1296 1296 1679616
634	2840043 27 56653 56653 75.00001637952 75.00001637952 1 0 0 0 0
646	2840070 30 56659 56659 75.00001638912 75.00001638912 1 1278 1278 1278 1633284
647	2840100 30 56660 56660 75.00001638912 75.00001638912 1 1296 1296 1296 1679616
648	2840130 30 56660 56660 75.00001638912 75.00001638912 1 1296 1296 1296 1679616
649	2840160 54 56660 56660 75.00001638912 75.00001638912 2 0 1 1 1
650	2840214 30 56660 56660 75.00001638912 75.00001638912 1 1296 1296 1296 1679616
651	2840244 27 56660 56660 75.00001638912 75.00001638912 1 0 0 0 0
667	2840271 30 56648 56648 75.00001637952 75.00001637952 1 1258 1258 1258 1582564
668	2840301 28 56648 56648 75.00001637952 75.00001637952 1 61 61 61 3721
669	2840329 30 56649 56649 75.00001637952 75.00001637952 1 1250 1250 1250 1562500
670	2840359 88 56649 56649 74.6 75 5 0 200000 200000 40000000000
671	2840447 38 56649 56649 75.00001637952 75.00001637952 1 1.408448e-05 1.408448e-05 1.408448e-05 1.983725768704e-10
672	2840485 27 56649 56649 75.00001637952 75.00001637952 1 0 0 0 0
673	2840512 30 56650 56650 75.00001637952 75.00001637952 1 1258 1258 1258 1582564
93	2840542 40 56674 56674 75.00001657856 75.00001657856 1 6031886967.2637 6031886967.2637 6031886967.2637 3.6383660385846e+19
142	2840582 41 56674 56674 75.00001657856 75.00001657856 1 603188696.72637 603188696.72637 603188696.72637 3.6383660385846e+17
155	2840623 41 56674 56674 75.00001657856 75.00001657856 1 603188696.72637 603188696.72637 603188696.72637 3.6383660385846e+17
286	2840664 41 56674 56674 75.00001657856 75.00001657856 1 603188696.72637 603188696.72637 603188696.72637 3.6383660385846e+17
314	2840705 41 56674 56674 75.00001657856 75.00001657856 1 603188696.72637 603188696.72637 603188696.72637 3.6383660385846e+17
338	2840746 41 56674 56674 75.00001657856 75.00001657856 1 603188696.72637 603188696.72637 603188696.72637 3.6383660385846e+17
410	2840787 41 56674 56674 75.00001657856 75.00001657856 1 603188696.72637 603188696.72637 603188696.72637 3.6383660385846e+17
464	2840828 41 56674 56674 75.00001657856 75.00001657856 1 603188696.72637 603188696.72637 603188696.72637 3.6383660385846e+17
492	2840869 41 56674 56674 75.00001657856 75.00001657856 1 603188696.72637 603188696.72637 603188696.72637 3.6383660385846e+17
516	2840910 41 56674 56674 75.00001657856 75.00001657856 1 603188696.72637 603188696.72637 603188696.72637 3.6383660385846e+17
588	2840951 41 56674 56674 75.00001657856 75.00001657856 1 603188696.72637 603188696.72637 603188696.72637 3.6383660385846e+17
642	2840992 41 56674 56674 75.00001657856 75.00001657856 1 603188696.72637 603188696.72637 603188696.72637 3.6383660385846e+17
670	2841033 41 56674 56674 75.00001657856 75.00001657856 1 603188696.72637 603188696.72637 603188696.72637 3.6383660385846e+17
694	2841074 115 56674 56674 74.6 75.00001657856 6 0 200000 200000 40000000000
705	2841189 115 56674 56674 74.6 75.00001657856 6 0 200000 200000 40000000000

