file 2729604 1653138864                                         
version 2
run General-0-20220521-14:23:05-61910
attr configname General
attr datetime 20220521-14:23:05
attr experiment General
attr inifile kFatTreeAsync.ini
attr iterationvars ""
attr iterationvarsf ""
attr measurement ""
attr network KFatTreeAsync
attr processid 61910
attr repetition 0
attr replication #0
attr resultdir results
attr runnumber 0
attr seedset 0
param **.k 4
param **.client.numApps 1
param **.client.app[0].typename "\"ClientAppNoCoord\""
param **.client.app[0].localPort 100
param **.client.app[0].destPort 100
param **.client.app[0].messageLength 1250B
param **.client.app[0].sendInterval 0.5s
param **.client.app[0].destAddresses "moduleListByPath(\"**.replica[*]\")"
param **.replica[*].numApps 1
param **.replica[*].app[0].typename "\"ReplicaAppBroadcast\""
param **.replica[*].app[0].localPort 100
param **.replica[*].app[0].destPort 100
param **.replica[*].app[0].messageLength 1250B
param **.replica[*].app[0].destAddresses "moduleListByPath(\"**.replica[*]\", \"**.client\")"
param **.app[0].startTime 0s
param **.app[0].stopTime 30s
param **.app[0].delayLimit 3s
param **.app[0].joinLocalMulticastGroups true

vector 0 KFatTreeAsync.pod[0].aggregateSwitch[0].eth[0].encap encapPk:vector(packetBytes) ETV
attr interpolationmode none
attr source encapPk
attr title "packets encapsulated, vector(packetBytes)"
vector 1 KFatTreeAsync.pod[0].aggregateSwitch[0].eth[1].encap encapPk:vector(packetBytes) ETV
attr interpolationmode none
attr source encapPk
attr title "packets encapsulated, vector(packetBytes)"
vector 2 KFatTreeAsync.pod[0].aggregateSwitch[0].eth[2].encap encapPk:vector(packetBytes) ETV
attr interpolationmode none
attr source encapPk
attr title "packets encapsulated, vector(packetBytes)"
vector 3 KFatTreeAsync.pod[0].aggregateSwitch[0].eth[3].encap encapPk:vector(packetBytes) ETV
attr interpolationmode none
attr source encapPk
attr title "packets encapsulated, vector(packetBytes)"
vector 4 KFatTreeAsync.pod[0].aggregateSwitch[1].eth[0].encap encapPk:vector(packetBytes) ETV
attr interpolationmode none
attr source encapPk
attr title "packets encapsulated, vector(packetBytes)"
vector 5 KFatTreeAsync.pod[0].aggregateSwitch[1].eth[1].encap encapPk:vector(packetBytes) ETV
attr interpolationmode none
attr source encapPk
attr title "packets encapsulated, vector(packetBytes)"
vector 6 KFatTreeAsync.pod[0].aggregateSwitch[1].eth[2].encap encapPk:vector(packetBytes) ETV
attr interpolationmode none
attr source encapPk
attr title "packets encapsulated, vector(packetBytes)"
vector 7 KFatTreeAsync.pod[0].aggregateSwitch[1].eth[3].encap encapPk:vector(packetBytes) ETV
attr interpolationmode none
attr source encapPk
attr title "packets encapsulated, vector(packetBytes)"
vector 8 KFatTreeAsync.pod[0].edgeSwitch[0].eth[0].encap encapPk:vector(packetBytes) ETV
attr interpolationmode none
attr source encapPk
attr title "packets encapsulated, vector(packetBytes)"
vector 9 KFatTreeAsync.pod[0].edgeSwitch[0].eth[1].encap encapPk:vector(packetBytes) ETV
attr interpolationmode none
attr source encapPk
attr title "packets encapsulated, vector(packetBytes)"
vector 10 KFatTreeAsync.pod[0].edgeSwitch[0].eth[2].encap encapPk:vector(packetBytes) ETV
attr interpolationmode none
attr source encapPk
attr title "packets encapsulated, vector(packetBytes)"
vector 11 KFatTreeAsync.pod[0].edgeSwitch[0].eth[3].encap encapPk:vector(packetBytes) ETV
attr interpolationmode none
attr source encapPk
attr title "packets encapsulated, vector(packetBytes)"
vector 12 KFatTreeAsync.pod[0].edgeSwitch[1].eth[0].encap encapPk:vector(packetBytes) ETV
attr interpolationmode none
attr source encapPk
attr title "packets encapsulated, vector(packetBytes)"
vector 13 KFatTreeAsync.pod[0].edgeSwitch[1].eth[1].encap encapPk:vector(packetBytes) ETV
attr interpolationmode none
attr source encapPk
attr title "packets encapsulated, vector(packetBytes)"
vector 14 KFatTreeAsync.pod[0].edgeSwitch[1].eth[2].encap encapPk:vector(packetBytes) ETV
attr interpolationmode none
attr source encapPk
attr title "packets encapsulated, vector(packetBytes)"
vector 15 KFatTreeAsync.pod[0].edgeSwitch[1].eth[3].encap encapPk:vector(packetBytes) ETV
attr interpolationmode none
attr source encapPk
attr title "packets encapsulated, vector(packetBytes)"
vector 16 KFatTreeAsync.pod[1].aggregateSwitch[0].eth[0].encap encapPk:vector(packetBytes) ETV
attr interpolationmode none
attr source encapPk
attr title "packets encapsulated, vector(packetBytes)"
vector 17 KFatTreeAsync.pod[1].aggregateSwitch[0].eth[1].encap encapPk:vector(packetBytes) ETV
attr interpolationmode none
attr source encapPk
attr title "packets encapsulated, vector(packetBytes)"
vector 18 KFatTreeAsync.pod[1].aggregateSwitch[0].eth[2].encap encapPk:vector(packetBytes) ETV
attr interpolationmode none
attr source encapPk
attr title "packets encapsulated, vector(packetBytes)"
vector 19 KFatTreeAsync.pod[1].aggregateSwitch[0].eth[3].encap encapPk:vector(packetBytes) ETV
attr interpolationmode none
attr source encapPk
attr title "packets encapsulated, vector(packetBytes)"
vector 20 KFatTreeAsync.pod[1].aggregateSwitch[1].eth[0].encap encapPk:vector(packetBytes) ETV
attr interpolationmode none
attr source encapPk
attr title "packets encapsulated, vector(packetBytes)"
vector 21 KFatTreeAsync.pod[1].aggregateSwitch[1].eth[1].encap encapPk:vector(packetBytes) ETV
attr interpolationmode none
attr source encapPk
attr title "packets encapsulated, vector(packetBytes)"
vector 22 KFatTreeAsync.pod[1].aggregateSwitch[1].eth[2].encap encapPk:vector(packetBytes) ETV
attr interpolationmode none
attr source encapPk
attr title "packets encapsulated, vector(packetBytes)"
vector 23 KFatTreeAsync.pod[1].aggregateSwitch[1].eth[3].encap encapPk:vector(packetBytes) ETV
attr interpolationmode none
attr source encapPk
attr title "packets encapsulated, vector(packetBytes)"
vector 24 KFatTreeAsync.pod[1].edgeSwitch[0].eth[0].encap encapPk:vector(packetBytes) ETV
attr interpolationmode none
attr source encapPk
attr title "packets encapsulated, vector(packetBytes)"
vector 25 KFatTreeAsync.pod[1].edgeSwitch[0].eth[1].encap encapPk:vector(packetBytes) ETV
attr interpolationmode none
attr source encapPk
attr title "packets encapsulated, vector(packetBytes)"
vector 26 KFatTreeAsync.pod[1].edgeSwitch[0].eth[2].encap encapPk:vector(packetBytes) ETV
attr interpolationmode none
attr source encapPk
attr title "packets encapsulated, vector(packetBytes)"
vector 27 KFatTreeAsync.pod[1].edgeSwitch[0].eth[3].encap encapPk:vector(packetBytes) ETV
attr interpolationmode none
attr source encapPk
attr title "packets encapsulated, vector(packetBytes)"
vector 28 KFatTreeAsync.pod[1].edgeSwitch[1].eth[0].encap encapPk:vector(packetBytes) ETV
attr interpolationmode none
attr source encapPk
attr title "packets encapsulated, vector(packetBytes)"
vector 29 KFatTreeAsync.pod[1].edgeSwitch[1].eth[1].encap encapPk:vector(packetBytes) ETV
attr interpolationmode none
attr source encapPk
attr title "packets encapsulated, vector(packetBytes)"
vector 30 KFatTreeAsync.pod[1].edgeSwitch[1].eth[2].encap encapPk:vector(packetBytes) ETV
attr interpolationmode none
attr source encapPk
attr title "packets encapsulated, vector(packetBytes)"
vector 31 KFatTreeAsync.pod[1].edgeSwitch[1].eth[3].encap encapPk:vector(packetBytes) ETV
attr interpolationmode none
attr source encapPk
attr title "packets encapsulated, vector(packetBytes)"
vector 32 KFatTreeAsync.pod[2].aggregateSwitch[0].eth[0].encap encapPk:vector(packetBytes) ETV
attr interpolationmode none
attr source encapPk
attr title "packets encapsulated, vector(packetBytes)"
vector 33 KFatTreeAsync.pod[2].aggregateSwitch[0].eth[1].encap encapPk:vector(packetBytes) ETV
attr interpolationmode none
attr source encapPk
attr title "packets encapsulated, vector(packetBytes)"
vector 34 KFatTreeAsync.pod[2].aggregateSwitch[0].eth[2].encap encapPk:vector(packetBytes) ETV
attr interpolationmode none
attr source encapPk
attr title "packets encapsulated, vector(packetBytes)"
vector 35 KFatTreeAsync.pod[2].aggregateSwitch[0].eth[3].encap encapPk:vector(packetBytes) ETV
attr interpolationmode none
attr source encapPk
attr title "packets encapsulated, vector(packetBytes)"
vector 36 KFatTreeAsync.pod[2].aggregateSwitch[1].eth[0].encap encapPk:vector(packetBytes) ETV
attr interpolationmode none
attr source encapPk
attr title "packets encapsulated, vector(packetBytes)"
vector 37 KFatTreeAsync.pod[2].aggregateSwitch[1].eth[1].encap encapPk:vector(packetBytes) ETV
attr interpolationmode none
attr source encapPk
attr title "packets encapsulated, vector(packetBytes)"
vector 38 KFatTreeAsync.pod[2].aggregateSwitch[1].eth[2].encap encapPk:vector(packetBytes) ETV
attr interpolationmode none
attr source encapPk
attr title "packets encapsulated, vector(packetBytes)"
vector 39 KFatTreeAsync.pod[2].aggregateSwitch[1].eth[3].encap encapPk:vector(packetBytes) ETV
attr interpolationmode none
attr source encapPk
attr title "packets encapsulated, vector(packetBytes)"
vector 40 KFatTreeAsync.pod[2].edgeSwitch[0].eth[0].encap encapPk:vector(packetBytes) ETV
attr interpolationmode none
attr source encapPk
attr title "packets encapsulated, vector(packetBytes)"
vector 41 KFatTreeAsync.pod[2].edgeSwitch[0].eth[1].encap encapPk:vector(packetBytes) ETV
attr interpolationmode none
attr source encapPk
attr title "packets encapsulated, vector(packetBytes)"
vector 42 KFatTreeAsync.pod[2].edgeSwitch[0].eth[2].encap encapPk:vector(packetBytes) ETV
attr interpolationmode none
attr source encapPk
attr title "packets encapsulated, vector(packetBytes)"
vector 43 KFatTreeAsync.pod[2].edgeSwitch[0].eth[3].encap encapPk:vector(packetBytes) ETV
attr interpolationmode none
attr source encapPk
attr title "packets encapsulated, vector(packetBytes)"
vector 44 KFatTreeAsync.pod[2].edgeSwitch[1].eth[0].encap encapPk:vector(packetBytes) ETV
attr interpolationmode none
attr source encapPk
attr title "packets encapsulated, vector(packetBytes)"
vector 45 KFatTreeAsync.pod[2].edgeSwitch[1].eth[1].encap encapPk:vector(packetBytes) ETV
attr interpolationmode none
attr source encapPk
attr title "packets encapsulated, vector(packetBytes)"
vector 46 KFatTreeAsync.pod[2].edgeSwitch[1].eth[2].encap encapPk:vector(packetBytes) ETV
attr interpolationmode none
attr source encapPk
attr title "packets encapsulated, vector(packetBytes)"
vector 47 KFatTreeAsync.pod[2].edgeSwitch[1].eth[3].encap encapPk:vector(packetBytes) ETV
attr interpolationmode none
attr source encapPk
attr title "packets encapsulated, vector(packetBytes)"
vector 48 KFatTreeAsync.pod[3].aggregateSwitch[0].eth[0].encap encapPk:vector(packetBytes) ETV
attr interpolationmode none
attr source encapPk
attr title "packets encapsulated, vector(packetBytes)"
vector 49 KFatTreeAsync.pod[3].aggregateSwitch[0].eth[1].encap encapPk:vector(packetBytes) ETV
attr interpolationmode none
attr source encapPk
attr title "packets encapsulated, vector(packetBytes)"
vector 50 KFatTreeAsync.pod[3].aggregateSwitch[0].eth[2].encap encapPk:vector(packetBytes) ETV
attr interpolationmode none
attr source encapPk
attr title "packets encapsulated, vector(packetBytes)"
vector 51 KFatTreeAsync.pod[3].aggregateSwitch[0].eth[3].encap encapPk:vector(packetBytes) ETV
attr interpolationmode none
attr source encapPk
attr title "packets encapsulated, vector(packetBytes)"
vector 52 KFatTreeAsync.pod[3].aggregateSwitch[1].eth[0].encap encapPk:vector(packetBytes) ETV
attr interpolationmode none
attr source encapPk
attr title "packets encapsulated, vector(packetBytes)"
vector 53 KFatTreeAsync.pod[3].aggregateSwitch[1].eth[1].encap encapPk:vector(packetBytes) ETV
attr interpolationmode none
attr source encapPk
attr title "packets encapsulated, vector(packetBytes)"
vector 54 KFatTreeAsync.pod[3].aggregateSwitch[1].eth[2].encap encapPk:vector(packetBytes) ETV
attr interpolationmode none
attr source encapPk
attr title "packets encapsulated, vector(packetBytes)"
vector 55 KFatTreeAsync.pod[3].aggregateSwitch[1].eth[3].encap encapPk:vector(packetBytes) ETV
attr interpolationmode none
attr source encapPk
attr title "packets encapsulated, vector(packetBytes)"
vector 56 KFatTreeAsync.pod[3].edgeSwitch[0].eth[0].encap encapPk:vector(packetBytes) ETV
attr interpolationmode none
attr source encapPk
attr title "packets encapsulated, vector(packetBytes)"
vector 57 KFatTreeAsync.pod[3].edgeSwitch[0].eth[1].encap encapPk:vector(packetBytes) ETV
attr interpolationmode none
attr source encapPk
attr title "packets encapsulated, vector(packetBytes)"
vector 58 KFatTreeAsync.pod[3].edgeSwitch[0].eth[2].encap encapPk:vector(packetBytes) ETV
attr interpolationmode none
attr source encapPk
attr title "packets encapsulated, vector(packetBytes)"
vector 59 KFatTreeAsync.pod[3].edgeSwitch[0].eth[3].encap encapPk:vector(packetBytes) ETV
attr interpolationmode none
attr source encapPk
attr title "packets encapsulated, vector(packetBytes)"
vector 60 KFatTreeAsync.pod[3].edgeSwitch[1].eth[0].encap encapPk:vector(packetBytes) ETV
attr interpolationmode none
attr source encapPk
attr title "packets encapsulated, vector(packetBytes)"
vector 61 KFatTreeAsync.pod[3].edgeSwitch[1].eth[1].encap encapPk:vector(packetBytes) ETV
attr interpolationmode none
attr source encapPk
attr title "packets encapsulated, vector(packetBytes)"
vector 62 KFatTreeAsync.pod[3].edgeSwitch[1].eth[2].encap encapPk:vector(packetBytes) ETV
attr interpolationmode none
attr source encapPk
attr title "packets encapsulated, vector(packetBytes)"
vector 63 KFatTreeAsync.pod[3].edgeSwitch[1].eth[3].encap encapPk:vector(packetBytes) ETV
attr interpolationmode none
attr source encapPk
attr title "packets encapsulated, vector(packetBytes)"
vector 64 KFatTreeAsync.hosts.client.eth[0].encap encapPk:vector(packetBytes) ETV
attr interpolationmode none
attr source encapPk
attr title "packets encapsulated, vector(packetBytes)"
vector 65 KFatTreeAsync.hosts.replica[0].eth[0].encap encapPk:vector(packetBytes) ETV
attr interpolationmode none
attr source encapPk
attr title "packets encapsulated, vector(packetBytes)"
vector 66 KFatTreeAsync.hosts.replica[1].eth[0].encap encapPk:vector(packetBytes) ETV
attr interpolationmode none
attr source encapPk
attr title "packets encapsulated, vector(packetBytes)"
vector 67 KFatTreeAsync.hosts.replica[2].eth[0].encap encapPk:vector(packetBytes) ETV
attr interpolationmode none
attr source encapPk
attr title "packets encapsulated, vector(packetBytes)"
vector 68 KFatTreeAsync.hosts.replica[3].eth[0].encap encapPk:vector(packetBytes) ETV
attr interpolationmode none
attr source encapPk
attr title "packets encapsulated, vector(packetBytes)"
vector 69 KFatTreeAsync.hosts.replica[4].eth[0].encap encapPk:vector(packetBytes) ETV
attr interpolationmode none
attr source encapPk
attr title "packets encapsulated, vector(packetBytes)"
vector 70 KFatTreeAsync.hosts.replica[5].eth[0].encap encapPk:vector(packetBytes) ETV
attr interpolationmode none
attr source encapPk
attr title "packets encapsulated, vector(packetBytes)"
vector 71 KFatTreeAsync.hosts.replica[6].eth[0].encap encapPk:vector(packetBytes) ETV
attr interpolationmode none
attr source encapPk
attr title "packets encapsulated, vector(packetBytes)"
vector 72 KFatTreeAsync.hosts.replica[7].eth[0].encap encapPk:vector(packetBytes) ETV
attr interpolationmode none
attr source encapPk
attr title "packets encapsulated, vector(packetBytes)"
vector 73 KFatTreeAsync.hosts.replica[8].eth[0].encap encapPk:vector(packetBytes) ETV
attr interpolationmode none
attr source encapPk
attr title "packets encapsulated, vector(packetBytes)"
vector 74 KFatTreeAsync.hosts.replica[9].eth[0].encap encapPk:vector(packetBytes) ETV
attr interpolationmode none
attr source encapPk
attr title "packets encapsulated, vector(packetBytes)"
vector 75 KFatTreeAsync.hosts.replica[10].eth[0].encap encapPk:vector(packetBytes) ETV
attr interpolationmode none
attr source encapPk
attr title "packets encapsulated, vector(packetBytes)"
vector 76 KFatTreeAsync.hosts.replica[11].eth[0].encap encapPk:vector(packetBytes) ETV
attr interpolationmode none
attr source encapPk
attr title "packets encapsulated, vector(packetBytes)"
vector 77 KFatTreeAsync.hosts.replica[12].eth[0].encap encapPk:vector(packetBytes) ETV
attr interpolationmode none
attr source encapPk
attr title "packets encapsulated, vector(packetBytes)"
vector 78 KFatTreeAsync.hosts.replica[13].eth[0].encap encapPk:vector(packetBytes) ETV
attr interpolationmode none
attr source encapPk
attr title "packets encapsulated, vector(packetBytes)"
vector 79 KFatTreeAsync.hosts.replica[14].eth[0].encap encapPk:vector(packetBytes) ETV
attr interpolationmode none
attr source encapPk
attr title "packets encapsulated, vector(packetBytes)"
vector 80 KFatTreeAsync.hosts.client.udp packetSent:vector(packetBytes) ETV
attr interpolationmode none
attr source packetSent
attr title "packets sent, vector(packetBytes)"
vector 81 KFatTreeAsync.pod[0].aggregateSwitch[0].eth[0].mac packetReceivedFromUpper:vector(packetBytes) ETV
attr interpolationmode none
attr source packetReceivedFromUpper
attr title "packet bytes from higher layer, vector(packetBytes)"
vector 82 KFatTreeAsync.pod[0].aggregateSwitch[0].eth[0].mac.queue packetPushed:vector(packetBytes) ETV
attr interpolationmode none
attr title "packet pushed, vector(packetBytes)"
vector 83 KFatTreeAsync.pod[0].aggregateSwitch[0].eth[0].mac.queue queueLength:vector ETV
attr interpolationmode sample-hold
attr source "count(packetPushed) - count(packetPopped) - count(packetRemoved) - count(packetDropped)"
attr title "queue length, vector"
vector 84 KFatTreeAsync.pod[0].aggregateSwitch[0].eth[0].mac.queue packetPopped:vector(packetBytes) ETV
attr interpolationmode none
attr title "packet popped, vector(packetBytes)"
vector 85 KFatTreeAsync.pod[0].aggregateSwitch[0].eth[0].mac.queue queueingTime:vector ETV
attr interpolationmode none
attr source queueingTime(packetPopped)
attr title "queueing times, vector"
attr unit s
vector 86 KFatTreeAsync.pod[0].aggregateSwitch[0].eth[1].mac packetReceivedFromUpper:vector(packetBytes) ETV
attr interpolationmode none
attr source packetReceivedFromUpper
attr title "packet bytes from higher layer, vector(packetBytes)"
vector 87 KFatTreeAsync.pod[0].aggregateSwitch[0].eth[1].mac.queue packetPushed:vector(packetBytes) ETV
attr interpolationmode none
attr title "packet pushed, vector(packetBytes)"
vector 88 KFatTreeAsync.pod[0].aggregateSwitch[0].eth[1].mac.queue queueLength:vector ETV
attr interpolationmode sample-hold
attr source "count(packetPushed) - count(packetPopped) - count(packetRemoved) - count(packetDropped)"
attr title "queue length, vector"
vector 89 KFatTreeAsync.pod[0].aggregateSwitch[0].eth[1].mac.queue packetPopped:vector(packetBytes) ETV
attr interpolationmode none
attr title "packet popped, vector(packetBytes)"
vector 90 KFatTreeAsync.pod[0].aggregateSwitch[0].eth[1].mac.queue queueingTime:vector ETV
attr interpolationmode none
attr source queueingTime(packetPopped)
attr title "queueing times, vector"
attr unit s
vector 91 KFatTreeAsync.pod[0].aggregateSwitch[0].eth[2].mac packetReceivedFromUpper:vector(packetBytes) ETV
attr interpolationmode none
attr source packetReceivedFromUpper
attr title "packet bytes from higher layer, vector(packetBytes)"
vector 92 KFatTreeAsync.pod[0].aggregateSwitch[0].eth[2].mac.queue packetPushed:vector(packetBytes) ETV
attr interpolationmode none
attr title "packet pushed, vector(packetBytes)"
vector 93 KFatTreeAsync.pod[0].aggregateSwitch[0].eth[2].mac.queue queueLength:vector ETV
attr interpolationmode sample-hold
attr source "count(packetPushed) - count(packetPopped) - count(packetRemoved) - count(packetDropped)"
attr title "queue length, vector"
vector 94 KFatTreeAsync.pod[0].aggregateSwitch[0].eth[2].mac.queue packetPopped:vector(packetBytes) ETV
attr interpolationmode none
attr title "packet popped, vector(packetBytes)"
vector 95 KFatTreeAsync.pod[0].aggregateSwitch[0].eth[2].mac.queue queueingTime:vector ETV
attr interpolationmode none
attr source queueingTime(packetPopped)
attr title "queueing times, vector"
attr unit s
vector 96 KFatTreeAsync.pod[0].aggregateSwitch[0].eth[3].mac packetReceivedFromUpper:vector(packetBytes) ETV
attr interpolationmode none
attr source packetReceivedFromUpper
attr title "packet bytes from higher layer, vector(packetBytes)"
vector 97 KFatTreeAsync.pod[0].aggregateSwitch[0].eth[3].mac.queue packetPushed:vector(packetBytes) ETV
attr interpolationmode none
attr title "packet pushed, vector(packetBytes)"
vector 98 KFatTreeAsync.pod[0].aggregateSwitch[0].eth[3].mac.queue queueLength:vector ETV
attr interpolationmode sample-hold
attr source "count(packetPushed) - count(packetPopped) - count(packetRemoved) - count(packetDropped)"
attr title "queue length, vector"
vector 99 KFatTreeAsync.pod[0].aggregateSwitch[0].eth[3].mac.queue packetPopped:vector(packetBytes) ETV
attr interpolationmode none
attr title "packet popped, vector(packetBytes)"
vector 100 KFatTreeAsync.pod[0].aggregateSwitch[0].eth[3].mac.queue queueingTime:vector ETV
attr interpolationmode none
attr source queueingTime(packetPopped)
attr title "queueing times, vector"
attr unit s
vector 101 KFatTreeAsync.pod[0].aggregateSwitch[1].eth[0].mac packetReceivedFromUpper:vector(packetBytes) ETV
attr interpolationmode none
attr source packetReceivedFromUpper
attr title "packet bytes from higher layer, vector(packetBytes)"
vector 102 KFatTreeAsync.pod[0].aggregateSwitch[1].eth[0].mac.queue packetPushed:vector(packetBytes) ETV
attr interpolationmode none
attr title "packet pushed, vector(packetBytes)"
vector 103 KFatTreeAsync.pod[0].aggregateSwitch[1].eth[0].mac.queue queueLength:vector ETV
attr interpolationmode sample-hold
attr source "count(packetPushed) - count(packetPopped) - count(packetRemoved) - count(packetDropped)"
attr title "queue length, vector"
vector 104 KFatTreeAsync.pod[0].aggregateSwitch[1].eth[0].mac.queue packetPopped:vector(packetBytes) ETV
attr interpolationmode none
attr title "packet popped, vector(packetBytes)"
vector 105 KFatTreeAsync.pod[0].aggregateSwitch[1].eth[0].mac.queue queueingTime:vector ETV
attr interpolationmode none
attr source queueingTime(packetPopped)
attr title "queueing times, vector"
attr unit s
vector 106 KFatTreeAsync.pod[0].aggregateSwitch[1].eth[1].mac packetReceivedFromUpper:vector(packetBytes) ETV
attr interpolationmode none
attr source packetReceivedFromUpper
attr title "packet bytes from higher layer, vector(packetBytes)"
vector 107 KFatTreeAsync.pod[0].aggregateSwitch[1].eth[1].mac.queue packetPushed:vector(packetBytes) ETV
attr interpolationmode none
attr title "packet pushed, vector(packetBytes)"
vector 108 KFatTreeAsync.pod[0].aggregateSwitch[1].eth[1].mac.queue queueLength:vector ETV
attr interpolationmode sample-hold
attr source "count(packetPushed) - count(packetPopped) - count(packetRemoved) - count(packetDropped)"
attr title "queue length, vector"
vector 109 KFatTreeAsync.pod[0].aggregateSwitch[1].eth[1].mac.queue packetPopped:vector(packetBytes) ETV
attr interpolationmode none
attr title "packet popped, vector(packetBytes)"
vector 110 KFatTreeAsync.pod[0].aggregateSwitch[1].eth[1].mac.queue queueingTime:vector ETV
attr interpolationmode none
attr source queueingTime(packetPopped)
attr title "queueing times, vector"
attr unit s
vector 111 KFatTreeAsync.pod[0].aggregateSwitch[1].eth[2].mac packetReceivedFromUpper:vector(packetBytes) ETV
attr interpolationmode none
attr source packetReceivedFromUpper
attr title "packet bytes from higher layer, vector(packetBytes)"
vector 112 KFatTreeAsync.pod[0].aggregateSwitch[1].eth[2].mac.queue packetPushed:vector(packetBytes) ETV
attr interpolationmode none
attr title "packet pushed, vector(packetBytes)"
vector 113 KFatTreeAsync.pod[0].aggregateSwitch[1].eth[2].mac.queue queueLength:vector ETV
attr interpolationmode sample-hold
attr source "count(packetPushed) - count(packetPopped) - count(packetRemoved) - count(packetDropped)"
attr title "queue length, vector"
vector 114 KFatTreeAsync.pod[0].aggregateSwitch[1].eth[2].mac.queue packetPopped:vector(packetBytes) ETV
attr interpolationmode none
attr title "packet popped, vector(packetBytes)"
vector 115 KFatTreeAsync.pod[0].aggregateSwitch[1].eth[2].mac.queue queueingTime:vector ETV
attr interpolationmode none
attr source queueingTime(packetPopped)
attr title "queueing times, vector"
attr unit s
vector 116 KFatTreeAsync.pod[0].aggregateSwitch[1].eth[3].mac packetReceivedFromUpper:vector(packetBytes) ETV
attr interpolationmode none
attr source packetReceivedFromUpper
attr title "packet bytes from higher layer, vector(packetBytes)"
vector 117 KFatTreeAsync.pod[0].aggregateSwitch[1].eth[3].mac.queue packetPushed:vector(packetBytes) ETV
attr interpolationmode none
attr title "packet pushed, vector(packetBytes)"
vector 118 KFatTreeAsync.pod[0].aggregateSwitch[1].eth[3].mac.queue queueLength:vector ETV
attr interpolationmode sample-hold
attr source "count(packetPushed) - count(packetPopped) - count(packetRemoved) - count(packetDropped)"
attr title "queue length, vector"
vector 119 KFatTreeAsync.pod[0].aggregateSwitch[1].eth[3].mac.queue packetPopped:vector(packetBytes) ETV
attr interpolationmode none
attr title "packet popped, vector(packetBytes)"
vector 120 KFatTreeAsync.pod[0].aggregateSwitch[1].eth[3].mac.queue queueingTime:vector ETV
attr interpolationmode none
attr source queueingTime(packetPopped)
attr title "queueing times, vector"
attr unit s
vector 121 KFatTreeAsync.pod[0].edgeSwitch[0].eth[0].mac packetReceivedFromUpper:vector(packetBytes) ETV
attr interpolationmode none
attr source packetReceivedFromUpper
attr title "packet bytes from higher layer, vector(packetBytes)"
vector 122 KFatTreeAsync.pod[0].edgeSwitch[0].eth[0].mac.queue packetPushed:vector(packetBytes) ETV
attr interpolationmode none
attr title "packet pushed, vector(packetBytes)"
vector 123 KFatTreeAsync.pod[0].edgeSwitch[0].eth[0].mac.queue queueLength:vector ETV
attr interpolationmode sample-hold
attr source "count(packetPushed) - count(packetPopped) - count(packetRemoved) - count(packetDropped)"
attr title "queue length, vector"
vector 124 KFatTreeAsync.pod[0].edgeSwitch[0].eth[0].mac.queue packetPopped:vector(packetBytes) ETV
attr interpolationmode none
attr title "packet popped, vector(packetBytes)"
vector 125 KFatTreeAsync.pod[0].edgeSwitch[0].eth[0].mac.queue queueingTime:vector ETV
attr interpolationmode none
attr source queueingTime(packetPopped)
attr title "queueing times, vector"
attr unit s
vector 126 KFatTreeAsync.pod[0].edgeSwitch[0].eth[1].mac packetReceivedFromUpper:vector(packetBytes) ETV
attr interpolationmode none
attr source packetReceivedFromUpper
attr title "packet bytes from higher layer, vector(packetBytes)"
vector 127 KFatTreeAsync.pod[0].edgeSwitch[0].eth[1].mac.queue packetPushed:vector(packetBytes) ETV
attr interpolationmode none
attr title "packet pushed, vector(packetBytes)"
vector 128 KFatTreeAsync.pod[0].edgeSwitch[0].eth[1].mac.queue queueLength:vector ETV
attr interpolationmode sample-hold
attr source "count(packetPushed) - count(packetPopped) - count(packetRemoved) - count(packetDropped)"
attr title "queue length, vector"
vector 129 KFatTreeAsync.pod[0].edgeSwitch[0].eth[1].mac.queue packetPopped:vector(packetBytes) ETV
attr interpolationmode none
attr title "packet popped, vector(packetBytes)"
vector 130 KFatTreeAsync.pod[0].edgeSwitch[0].eth[1].mac.queue queueingTime:vector ETV
attr interpolationmode none
attr source queueingTime(packetPopped)
attr title "queueing times, vector"
attr unit s
vector 131 KFatTreeAsync.pod[0].edgeSwitch[0].eth[2].mac packetReceivedFromUpper:vector(packetBytes) ETV
attr interpolationmode none
attr source packetReceivedFromUpper
attr title "packet bytes from higher layer, vector(packetBytes)"
vector 132 KFatTreeAsync.pod[0].edgeSwitch[0].eth[2].mac.queue packetPushed:vector(packetBytes) ETV
attr interpolationmode none
attr title "packet pushed, vector(packetBytes)"
vector 133 KFatTreeAsync.pod[0].edgeSwitch[0].eth[2].mac.queue queueLength:vector ETV
attr interpolationmode sample-hold
attr source "count(packetPushed) - count(packetPopped) - count(packetRemoved) - count(packetDropped)"
attr title "queue length, vector"
vector 134 KFatTreeAsync.pod[0].edgeSwitch[0].eth[2].mac.queue packetPopped:vector(packetBytes) ETV
attr interpolationmode none
attr title "packet popped, vector(packetBytes)"
vector 135 KFatTreeAsync.pod[0].edgeSwitch[0].eth[2].mac.queue queueingTime:vector ETV
attr interpolationmode none
attr source queueingTime(packetPopped)
attr title "queueing times, vector"
attr unit s
vector 136 KFatTreeAsync.pod[0].edgeSwitch[0].eth[3].mac packetReceivedFromUpper:vector(packetBytes) ETV
attr interpolationmode none
attr source packetReceivedFromUpper
attr title "packet bytes from higher layer, vector(packetBytes)"
vector 137 KFatTreeAsync.pod[0].edgeSwitch[0].eth[3].mac.queue packetPushed:vector(packetBytes) ETV
attr interpolationmode none
attr title "packet pushed, vector(packetBytes)"
vector 138 KFatTreeAsync.pod[0].edgeSwitch[0].eth[3].mac.queue queueLength:vector ETV
attr interpolationmode sample-hold
attr source "count(packetPushed) - count(packetPopped) - count(packetRemoved) - count(packetDropped)"
attr title "queue length, vector"
vector 139 KFatTreeAsync.pod[0].edgeSwitch[0].eth[3].mac.queue packetPopped:vector(packetBytes) ETV
attr interpolationmode none
attr title "packet popped, vector(packetBytes)"
vector 140 KFatTreeAsync.pod[0].edgeSwitch[0].eth[3].mac.queue queueingTime:vector ETV
attr interpolationmode none
attr source queueingTime(packetPopped)
attr title "queueing times, vector"
attr unit s
vector 141 KFatTreeAsync.pod[0].edgeSwitch[1].eth[0].mac packetReceivedFromUpper:vector(packetBytes) ETV
attr interpolationmode none
attr source packetReceivedFromUpper
attr title "packet bytes from higher layer, vector(packetBytes)"
vector 142 KFatTreeAsync.pod[0].edgeSwitch[1].eth[0].mac.queue packetPushed:vector(packetBytes) ETV
attr interpolationmode none
attr title "packet pushed, vector(packetBytes)"
vector 143 KFatTreeAsync.pod[0].edgeSwitch[1].eth[0].mac.queue queueLength:vector ETV
attr interpolationmode sample-hold
attr source "count(packetPushed) - count(packetPopped) - count(packetRemoved) - count(packetDropped)"
attr title "queue length, vector"
vector 144 KFatTreeAsync.pod[0].edgeSwitch[1].eth[0].mac.queue packetPopped:vector(packetBytes) ETV
attr interpolationmode none
attr title "packet popped, vector(packetBytes)"
vector 145 KFatTreeAsync.pod[0].edgeSwitch[1].eth[0].mac.queue queueingTime:vector ETV
attr interpolationmode none
attr source queueingTime(packetPopped)
attr title "queueing times, vector"
attr unit s
vector 146 KFatTreeAsync.pod[0].edgeSwitch[1].eth[1].mac packetReceivedFromUpper:vector(packetBytes) ETV
attr interpolationmode none
attr source packetReceivedFromUpper
attr title "packet bytes from higher layer, vector(packetBytes)"
vector 147 KFatTreeAsync.pod[0].edgeSwitch[1].eth[1].mac.queue packetPushed:vector(packetBytes) ETV
attr interpolationmode none
attr title "packet pushed, vector(packetBytes)"
vector 148 KFatTreeAsync.pod[0].edgeSwitch[1].eth[1].mac.queue queueLength:vector ETV
attr interpolationmode sample-hold
attr source "count(packetPushed) - count(packetPopped) - count(packetRemoved) - count(packetDropped)"
attr title "queue length, vector"
vector 149 KFatTreeAsync.pod[0].edgeSwitch[1].eth[1].mac.queue packetPopped:vector(packetBytes) ETV
attr interpolationmode none
attr title "packet popped, vector(packetBytes)"
vector 150 KFatTreeAsync.pod[0].edgeSwitch[1].eth[1].mac.queue queueingTime:vector ETV
attr interpolationmode none
attr source queueingTime(packetPopped)
attr title "queueing times, vector"
attr unit s
vector 151 KFatTreeAsync.pod[0].edgeSwitch[1].eth[2].mac packetReceivedFromUpper:vector(packetBytes) ETV
attr interpolationmode none
attr source packetReceivedFromUpper
attr title "packet bytes from higher layer, vector(packetBytes)"
vector 152 KFatTreeAsync.pod[0].edgeSwitch[1].eth[2].mac.queue packetPushed:vector(packetBytes) ETV
attr interpolationmode none
attr title "packet pushed, vector(packetBytes)"
vector 153 KFatTreeAsync.pod[0].edgeSwitch[1].eth[2].mac.queue queueLength:vector ETV
attr interpolationmode sample-hold
attr source "count(packetPushed) - count(packetPopped) - count(packetRemoved) - count(packetDropped)"
attr title "queue length, vector"
vector 154 KFatTreeAsync.pod[0].edgeSwitch[1].eth[2].mac.queue packetPopped:vector(packetBytes) ETV
attr interpolationmode none
attr title "packet popped, vector(packetBytes)"
vector 155 KFatTreeAsync.pod[0].edgeSwitch[1].eth[2].mac.queue queueingTime:vector ETV
attr interpolationmode none
attr source queueingTime(packetPopped)
attr title "queueing times, vector"
attr unit s
vector 156 KFatTreeAsync.pod[0].edgeSwitch[1].eth[3].mac packetReceivedFromUpper:vector(packetBytes) ETV
attr interpolationmode none
attr source packetReceivedFromUpper
attr title "packet bytes from higher layer, vector(packetBytes)"
vector 157 KFatTreeAsync.pod[0].edgeSwitch[1].eth[3].mac.queue packetPushed:vector(packetBytes) ETV
attr interpolationmode none
attr title "packet pushed, vector(packetBytes)"
vector 158 KFatTreeAsync.pod[0].edgeSwitch[1].eth[3].mac.queue queueLength:vector ETV
attr interpolationmode sample-hold
attr source "count(packetPushed) - count(packetPopped) - count(packetRemoved) - count(packetDropped)"
attr title "queue length, vector"
vector 159 KFatTreeAsync.pod[0].edgeSwitch[1].eth[3].mac.queue packetPopped:vector(packetBytes) ETV
attr interpolationmode none
attr title "packet popped, vector(packetBytes)"
vector 160 KFatTreeAsync.pod[0].edgeSwitch[1].eth[3].mac.queue queueingTime:vector ETV
attr interpolationmode none
attr source queueingTime(packetPopped)
attr title "queueing times, vector"
attr unit s
vector 161 KFatTreeAsync.pod[1].aggregateSwitch[0].eth[0].mac packetReceivedFromUpper:vector(packetBytes) ETV
attr interpolationmode none
attr source packetReceivedFromUpper
attr title "packet bytes from higher layer, vector(packetBytes)"
vector 162 KFatTreeAsync.pod[1].aggregateSwitch[0].eth[0].mac.queue packetPushed:vector(packetBytes) ETV
attr interpolationmode none
attr title "packet pushed, vector(packetBytes)"
vector 163 KFatTreeAsync.pod[1].aggregateSwitch[0].eth[0].mac.queue queueLength:vector ETV
attr interpolationmode sample-hold
attr source "count(packetPushed) - count(packetPopped) - count(packetRemoved) - count(packetDropped)"
attr title "queue length, vector"
vector 164 KFatTreeAsync.pod[1].aggregateSwitch[0].eth[0].mac.queue packetPopped:vector(packetBytes) ETV
attr interpolationmode none
attr title "packet popped, vector(packetBytes)"
vector 165 KFatTreeAsync.pod[1].aggregateSwitch[0].eth[0].mac.queue queueingTime:vector ETV
attr interpolationmode none
attr source queueingTime(packetPopped)
attr title "queueing times, vector"
attr unit s
vector 166 KFatTreeAsync.pod[1].aggregateSwitch[0].eth[1].mac packetReceivedFromUpper:vector(packetBytes) ETV
attr interpolationmode none
attr source packetReceivedFromUpper
attr title "packet bytes from higher layer, vector(packetBytes)"
vector 167 KFatTreeAsync.pod[1].aggregateSwitch[0].eth[1].mac.queue packetPushed:vector(packetBytes) ETV
attr interpolationmode none
attr title "packet pushed, vector(packetBytes)"
vector 168 KFatTreeAsync.pod[1].aggregateSwitch[0].eth[1].mac.queue queueLength:vector ETV
attr interpolationmode sample-hold
attr source "count(packetPushed) - count(packetPopped) - count(packetRemoved) - count(packetDropped)"
attr title "queue length, vector"
vector 169 KFatTreeAsync.pod[1].aggregateSwitch[0].eth[1].mac.queue packetPopped:vector(packetBytes) ETV
attr interpolationmode none
attr title "packet popped, vector(packetBytes)"
vector 170 KFatTreeAsync.pod[1].aggregateSwitch[0].eth[1].mac.queue queueingTime:vector ETV
attr interpolationmode none
attr source queueingTime(packetPopped)
attr title "queueing times, vector"
attr unit s
vector 171 KFatTreeAsync.pod[1].aggregateSwitch[0].eth[2].mac packetReceivedFromUpper:vector(packetBytes) ETV
attr interpolationmode none
attr source packetReceivedFromUpper
attr title "packet bytes from higher layer, vector(packetBytes)"
vector 172 KFatTreeAsync.pod[1].aggregateSwitch[0].eth[2].mac.queue packetPushed:vector(packetBytes) ETV
attr interpolationmode none
attr title "packet pushed, vector(packetBytes)"
vector 173 KFatTreeAsync.pod[1].aggregateSwitch[0].eth[2].mac.queue queueLength:vector ETV
attr interpolationmode sample-hold
attr source "count(packetPushed) - count(packetPopped) - count(packetRemoved) - count(packetDropped)"
attr title "queue length, vector"
vector 174 KFatTreeAsync.pod[1].aggregateSwitch[0].eth[2].mac.queue packetPopped:vector(packetBytes) ETV
attr interpolationmode none
attr title "packet popped, vector(packetBytes)"
vector 175 KFatTreeAsync.pod[1].aggregateSwitch[0].eth[2].mac.queue queueingTime:vector ETV
attr interpolationmode none
attr source queueingTime(packetPopped)
attr title "queueing times, vector"
attr unit s
vector 176 KFatTreeAsync.pod[1].aggregateSwitch[0].eth[3].mac packetReceivedFromUpper:vector(packetBytes) ETV
attr interpolationmode none
attr source packetReceivedFromUpper
attr title "packet bytes from higher layer, vector(packetBytes)"
vector 177 KFatTreeAsync.pod[1].aggregateSwitch[0].eth[3].mac.queue packetPushed:vector(packetBytes) ETV
attr interpolationmode none
attr title "packet pushed, vector(packetBytes)"
vector 178 KFatTreeAsync.pod[1].aggregateSwitch[0].eth[3].mac.queue queueLength:vector ETV
attr interpolationmode sample-hold
attr source "count(packetPushed) - count(packetPopped) - count(packetRemoved) - count(packetDropped)"
attr title "queue length, vector"
vector 179 KFatTreeAsync.pod[1].aggregateSwitch[0].eth[3].mac.queue packetPopped:vector(packetBytes) ETV
attr interpolationmode none
attr title "packet popped, vector(packetBytes)"
vector 180 KFatTreeAsync.pod[1].aggregateSwitch[0].eth[3].mac.queue queueingTime:vector ETV
attr interpolationmode none
attr source queueingTime(packetPopped)
attr title "queueing times, vector"
attr unit s
vector 181 KFatTreeAsync.pod[1].aggregateSwitch[1].eth[0].mac packetReceivedFromUpper:vector(packetBytes) ETV
attr interpolationmode none
attr source packetReceivedFromUpper
attr title "packet bytes from higher layer, vector(packetBytes)"
vector 182 KFatTreeAsync.pod[1].aggregateSwitch[1].eth[0].mac.queue packetPushed:vector(packetBytes) ETV
attr interpolationmode none
attr title "packet pushed, vector(packetBytes)"
vector 183 KFatTreeAsync.pod[1].aggregateSwitch[1].eth[0].mac.queue queueLength:vector ETV
attr interpolationmode sample-hold
attr source "count(packetPushed) - count(packetPopped) - count(packetRemoved) - count(packetDropped)"
attr title "queue length, vector"
vector 184 KFatTreeAsync.pod[1].aggregateSwitch[1].eth[0].mac.queue packetPopped:vector(packetBytes) ETV
attr interpolationmode none
attr title "packet popped, vector(packetBytes)"
vector 185 KFatTreeAsync.pod[1].aggregateSwitch[1].eth[0].mac.queue queueingTime:vector ETV
attr interpolationmode none
attr source queueingTime(packetPopped)
attr title "queueing times, vector"
attr unit s
vector 186 KFatTreeAsync.pod[1].aggregateSwitch[1].eth[1].mac packetReceivedFromUpper:vector(packetBytes) ETV
attr interpolationmode none
attr source packetReceivedFromUpper
attr title "packet bytes from higher layer, vector(packetBytes)"
vector 187 KFatTreeAsync.pod[1].aggregateSwitch[1].eth[1].mac.queue packetPushed:vector(packetBytes) ETV
attr interpolationmode none
attr title "packet pushed, vector(packetBytes)"
vector 188 KFatTreeAsync.pod[1].aggregateSwitch[1].eth[1].mac.queue queueLength:vector ETV
attr interpolationmode sample-hold
attr source "count(packetPushed) - count(packetPopped) - count(packetRemoved) - count(packetDropped)"
attr title "queue length, vector"
vector 189 KFatTreeAsync.pod[1].aggregateSwitch[1].eth[1].mac.queue packetPopped:vector(packetBytes) ETV
attr interpolationmode none
attr title "packet popped, vector(packetBytes)"
vector 190 KFatTreeAsync.pod[1].aggregateSwitch[1].eth[1].mac.queue queueingTime:vector ETV
attr interpolationmode none
attr source queueingTime(packetPopped)
attr title "queueing times, vector"
attr unit s
vector 191 KFatTreeAsync.pod[1].aggregateSwitch[1].eth[2].mac packetReceivedFromUpper:vector(packetBytes) ETV
attr interpolationmode none
attr source packetReceivedFromUpper
attr title "packet bytes from higher layer, vector(packetBytes)"
vector 192 KFatTreeAsync.pod[1].aggregateSwitch[1].eth[2].mac.queue packetPushed:vector(packetBytes) ETV
attr interpolationmode none
attr title "packet pushed, vector(packetBytes)"
vector 193 KFatTreeAsync.pod[1].aggregateSwitch[1].eth[2].mac.queue queueLength:vector ETV
attr interpolationmode sample-hold
attr source "count(packetPushed) - count(packetPopped) - count(packetRemoved) - count(packetDropped)"
attr title "queue length, vector"
vector 194 KFatTreeAsync.pod[1].aggregateSwitch[1].eth[2].mac.queue packetPopped:vector(packetBytes) ETV
attr interpolationmode none
attr title "packet popped, vector(packetBytes)"
vector 195 KFatTreeAsync.pod[1].aggregateSwitch[1].eth[2].mac.queue queueingTime:vector ETV
attr interpolationmode none
attr source queueingTime(packetPopped)
attr title "queueing times, vector"
attr unit s
vector 196 KFatTreeAsync.pod[1].aggregateSwitch[1].eth[3].mac packetReceivedFromUpper:vector(packetBytes) ETV
attr interpolationmode none
attr source packetReceivedFromUpper
attr title "packet bytes from higher layer, vector(packetBytes)"
vector 197 KFatTreeAsync.pod[1].aggregateSwitch[1].eth[3].mac.queue packetPushed:vector(packetBytes) ETV
attr interpolationmode none
attr title "packet pushed, vector(packetBytes)"
vector 198 KFatTreeAsync.pod[1].aggregateSwitch[1].eth[3].mac.queue queueLength:vector ETV
attr interpolationmode sample-hold
attr source "count(packetPushed) - count(packetPopped) - count(packetRemoved) - count(packetDropped)"
attr title "queue length, vector"
vector 199 KFatTreeAsync.pod[1].aggregateSwitch[1].eth[3].mac.queue packetPopped:vector(packetBytes) ETV
attr interpolationmode none
attr title "packet popped, vector(packetBytes)"
vector 200 KFatTreeAsync.pod[1].aggregateSwitch[1].eth[3].mac.queue queueingTime:vector ETV
attr interpolationmode none
attr source queueingTime(packetPopped)
attr title "queueing times, vector"
attr unit s
vector 201 KFatTreeAsync.pod[1].edgeSwitch[0].eth[0].mac packetReceivedFromUpper:vector(packetBytes) ETV
attr interpolationmode none
attr source packetReceivedFromUpper
attr title "packet bytes from higher layer, vector(packetBytes)"
vector 202 KFatTreeAsync.pod[1].edgeSwitch[0].eth[0].mac.queue packetPushed:vector(packetBytes) ETV
attr interpolationmode none
attr title "packet pushed, vector(packetBytes)"
vector 203 KFatTreeAsync.pod[1].edgeSwitch[0].eth[0].mac.queue queueLength:vector ETV
attr interpolationmode sample-hold
attr source "count(packetPushed) - count(packetPopped) - count(packetRemoved) - count(packetDropped)"
attr title "queue length, vector"
vector 204 KFatTreeAsync.pod[1].edgeSwitch[0].eth[0].mac.queue packetPopped:vector(packetBytes) ETV
attr interpolationmode none
attr title "packet popped, vector(packetBytes)"
vector 205 KFatTreeAsync.pod[1].edgeSwitch[0].eth[0].mac.queue queueingTime:vector ETV
attr interpolationmode none
attr source queueingTime(packetPopped)
attr title "queueing times, vector"
attr unit s
vector 206 KFatTreeAsync.pod[1].edgeSwitch[0].eth[1].mac packetReceivedFromUpper:vector(packetBytes) ETV
attr interpolationmode none
attr source packetReceivedFromUpper
attr title "packet bytes from higher layer, vector(packetBytes)"
vector 207 KFatTreeAsync.pod[1].edgeSwitch[0].eth[1].mac.queue packetPushed:vector(packetBytes) ETV
attr interpolationmode none
attr title "packet pushed, vector(packetBytes)"
vector 208 KFatTreeAsync.pod[1].edgeSwitch[0].eth[1].mac.queue queueLength:vector ETV
attr interpolationmode sample-hold
attr source "count(packetPushed) - count(packetPopped) - count(packetRemoved) - count(packetDropped)"
attr title "queue length, vector"
vector 209 KFatTreeAsync.pod[1].edgeSwitch[0].eth[1].mac.queue packetPopped:vector(packetBytes) ETV
attr interpolationmode none
attr title "packet popped, vector(packetBytes)"
vector 210 KFatTreeAsync.pod[1].edgeSwitch[0].eth[1].mac.queue queueingTime:vector ETV
attr interpolationmode none
attr source queueingTime(packetPopped)
attr title "queueing times, vector"
attr unit s
vector 211 KFatTreeAsync.pod[1].edgeSwitch[0].eth[2].mac packetReceivedFromUpper:vector(packetBytes) ETV
attr interpolationmode none
attr source packetReceivedFromUpper
attr title "packet bytes from higher layer, vector(packetBytes)"
vector 212 KFatTreeAsync.pod[1].edgeSwitch[0].eth[2].mac.queue packetPushed:vector(packetBytes) ETV
attr interpolationmode none
attr title "packet pushed, vector(packetBytes)"
vector 213 KFatTreeAsync.pod[1].edgeSwitch[0].eth[2].mac.queue queueLength:vector ETV
attr interpolationmode sample-hold
attr source "count(packetPushed) - count(packetPopped) - count(packetRemoved) - count(packetDropped)"
attr title "queue length, vector"
vector 214 KFatTreeAsync.pod[1].edgeSwitch[0].eth[2].mac.queue packetPopped:vector(packetBytes) ETV
attr interpolationmode none
attr title "packet popped, vector(packetBytes)"
vector 215 KFatTreeAsync.pod[1].edgeSwitch[0].eth[2].mac.queue queueingTime:vector ETV
attr interpolationmode none
attr source queueingTime(packetPopped)
attr title "queueing times, vector"
attr unit s
vector 216 KFatTreeAsync.pod[1].edgeSwitch[0].eth[3].mac packetReceivedFromUpper:vector(packetBytes) ETV
attr interpolationmode none
attr source packetReceivedFromUpper
attr title "packet bytes from higher layer, vector(packetBytes)"
vector 217 KFatTreeAsync.pod[1].edgeSwitch[0].eth[3].mac.queue packetPushed:vector(packetBytes) ETV
attr interpolationmode none
attr title "packet pushed, vector(packetBytes)"
vector 218 KFatTreeAsync.pod[1].edgeSwitch[0].eth[3].mac.queue queueLength:vector ETV
attr interpolationmode sample-hold
attr source "count(packetPushed) - count(packetPopped) - count(packetRemoved) - count(packetDropped)"
attr title "queue length, vector"
vector 219 KFatTreeAsync.pod[1].edgeSwitch[0].eth[3].mac.queue packetPopped:vector(packetBytes) ETV
attr interpolationmode none
attr title "packet popped, vector(packetBytes)"
vector 220 KFatTreeAsync.pod[1].edgeSwitch[0].eth[3].mac.queue queueingTime:vector ETV
attr interpolationmode none
attr source queueingTime(packetPopped)
attr title "queueing times, vector"
attr unit s
vector 221 KFatTreeAsync.pod[1].edgeSwitch[1].eth[0].mac packetReceivedFromUpper:vector(packetBytes) ETV
attr interpolationmode none
attr source packetReceivedFromUpper
attr title "packet bytes from higher layer, vector(packetBytes)"
vector 222 KFatTreeAsync.pod[1].edgeSwitch[1].eth[0].mac.queue packetPushed:vector(packetBytes) ETV
attr interpolationmode none
attr title "packet pushed, vector(packetBytes)"
vector 223 KFatTreeAsync.pod[1].edgeSwitch[1].eth[0].mac.queue queueLength:vector ETV
attr interpolationmode sample-hold
attr source "count(packetPushed) - count(packetPopped) - count(packetRemoved) - count(packetDropped)"
attr title "queue length, vector"
vector 224 KFatTreeAsync.pod[1].edgeSwitch[1].eth[0].mac.queue packetPopped:vector(packetBytes) ETV
attr interpolationmode none
attr title "packet popped, vector(packetBytes)"
vector 225 KFatTreeAsync.pod[1].edgeSwitch[1].eth[0].mac.queue queueingTime:vector ETV
attr interpolationmode none
attr source queueingTime(packetPopped)
attr title "queueing times, vector"
attr unit s
vector 226 KFatTreeAsync.pod[1].edgeSwitch[1].eth[1].mac packetReceivedFromUpper:vector(packetBytes) ETV
attr interpolationmode none
attr source packetReceivedFromUpper
attr title "packet bytes from higher layer, vector(packetBytes)"
vector 227 KFatTreeAsync.pod[1].edgeSwitch[1].eth[1].mac.queue packetPushed:vector(packetBytes) ETV
attr interpolationmode none
attr title "packet pushed, vector(packetBytes)"
vector 228 KFatTreeAsync.pod[1].edgeSwitch[1].eth[1].mac.queue queueLength:vector ETV
attr interpolationmode sample-hold
attr source "count(packetPushed) - count(packetPopped) - count(packetRemoved) - count(packetDropped)"
attr title "queue length, vector"
vector 229 KFatTreeAsync.pod[1].edgeSwitch[1].eth[1].mac.queue packetPopped:vector(packetBytes) ETV
attr interpolationmode none
attr title "packet popped, vector(packetBytes)"
vector 230 KFatTreeAsync.pod[1].edgeSwitch[1].eth[1].mac.queue queueingTime:vector ETV
attr interpolationmode none
attr source queueingTime(packetPopped)
attr title "queueing times, vector"
attr unit s
vector 231 KFatTreeAsync.pod[1].edgeSwitch[1].eth[2].mac packetReceivedFromUpper:vector(packetBytes) ETV
attr interpolationmode none
attr source packetReceivedFromUpper
attr title "packet bytes from higher layer, vector(packetBytes)"
vector 232 KFatTreeAsync.pod[1].edgeSwitch[1].eth[2].mac.queue packetPushed:vector(packetBytes) ETV
attr interpolationmode none
attr title "packet pushed, vector(packetBytes)"
vector 233 KFatTreeAsync.pod[1].edgeSwitch[1].eth[2].mac.queue queueLength:vector ETV
attr interpolationmode sample-hold
attr source "count(packetPushed) - count(packetPopped) - count(packetRemoved) - count(packetDropped)"
attr title "queue length, vector"
vector 234 KFatTreeAsync.pod[1].edgeSwitch[1].eth[2].mac.queue packetPopped:vector(packetBytes) ETV
attr interpolationmode none
attr title "packet popped, vector(packetBytes)"
vector 235 KFatTreeAsync.pod[1].edgeSwitch[1].eth[2].mac.queue queueingTime:vector ETV
attr interpolationmode none
attr source queueingTime(packetPopped)
attr title "queueing times, vector"
attr unit s
vector 236 KFatTreeAsync.pod[1].edgeSwitch[1].eth[3].mac packetReceivedFromUpper:vector(packetBytes) ETV
attr interpolationmode none
attr source packetReceivedFromUpper
attr title "packet bytes from higher layer, vector(packetBytes)"
vector 237 KFatTreeAsync.pod[1].edgeSwitch[1].eth[3].mac.queue packetPushed:vector(packetBytes) ETV
attr interpolationmode none
attr title "packet pushed, vector(packetBytes)"
vector 238 KFatTreeAsync.pod[1].edgeSwitch[1].eth[3].mac.queue queueLength:vector ETV
attr interpolationmode sample-hold
attr source "count(packetPushed) - count(packetPopped) - count(packetRemoved) - count(packetDropped)"
attr title "queue length, vector"
vector 239 KFatTreeAsync.pod[1].edgeSwitch[1].eth[3].mac.queue packetPopped:vector(packetBytes) ETV
attr interpolationmode none
attr title "packet popped, vector(packetBytes)"
vector 240 KFatTreeAsync.pod[1].edgeSwitch[1].eth[3].mac.queue queueingTime:vector ETV
attr interpolationmode none
attr source queueingTime(packetPopped)
attr title "queueing times, vector"
attr unit s
vector 241 KFatTreeAsync.pod[2].aggregateSwitch[0].eth[0].mac packetReceivedFromUpper:vector(packetBytes) ETV
attr interpolationmode none
attr source packetReceivedFromUpper
attr title "packet bytes from higher layer, vector(packetBytes)"
vector 242 KFatTreeAsync.pod[2].aggregateSwitch[0].eth[0].mac.queue packetPushed:vector(packetBytes) ETV
attr interpolationmode none
attr title "packet pushed, vector(packetBytes)"
vector 243 KFatTreeAsync.pod[2].aggregateSwitch[0].eth[0].mac.queue queueLength:vector ETV
attr interpolationmode sample-hold
attr source "count(packetPushed) - count(packetPopped) - count(packetRemoved) - count(packetDropped)"
attr title "queue length, vector"
vector 244 KFatTreeAsync.pod[2].aggregateSwitch[0].eth[0].mac.queue packetPopped:vector(packetBytes) ETV
attr interpolationmode none
attr title "packet popped, vector(packetBytes)"
vector 245 KFatTreeAsync.pod[2].aggregateSwitch[0].eth[0].mac.queue queueingTime:vector ETV
attr interpolationmode none
attr source queueingTime(packetPopped)
attr title "queueing times, vector"
attr unit s
vector 246 KFatTreeAsync.pod[2].aggregateSwitch[0].eth[1].mac packetReceivedFromUpper:vector(packetBytes) ETV
attr interpolationmode none
attr source packetReceivedFromUpper
attr title "packet bytes from higher layer, vector(packetBytes)"
vector 247 KFatTreeAsync.pod[2].aggregateSwitch[0].eth[1].mac.queue packetPushed:vector(packetBytes) ETV
attr interpolationmode none
attr title "packet pushed, vector(packetBytes)"
vector 248 KFatTreeAsync.pod[2].aggregateSwitch[0].eth[1].mac.queue queueLength:vector ETV
attr interpolationmode sample-hold
attr source "count(packetPushed) - count(packetPopped) - count(packetRemoved) - count(packetDropped)"
attr title "queue length, vector"
vector 249 KFatTreeAsync.pod[2].aggregateSwitch[0].eth[1].mac.queue packetPopped:vector(packetBytes) ETV
attr interpolationmode none
attr title "packet popped, vector(packetBytes)"
vector 250 KFatTreeAsync.pod[2].aggregateSwitch[0].eth[1].mac.queue queueingTime:vector ETV
attr interpolationmode none
attr source queueingTime(packetPopped)
attr title "queueing times, vector"
attr unit s
vector 251 KFatTreeAsync.pod[2].aggregateSwitch[0].eth[2].mac packetReceivedFromUpper:vector(packetBytes) ETV
attr interpolationmode none
attr source packetReceivedFromUpper
attr title "packet bytes from higher layer, vector(packetBytes)"
vector 252 KFatTreeAsync.pod[2].aggregateSwitch[0].eth[2].mac.queue packetPushed:vector(packetBytes) ETV
attr interpolationmode none
attr title "packet pushed, vector(packetBytes)"
vector 253 KFatTreeAsync.pod[2].aggregateSwitch[0].eth[2].mac.queue queueLength:vector ETV
attr interpolationmode sample-hold
attr source "count(packetPushed) - count(packetPopped) - count(packetRemoved) - count(packetDropped)"
attr title "queue length, vector"
vector 254 KFatTreeAsync.pod[2].aggregateSwitch[0].eth[2].mac.queue packetPopped:vector(packetBytes) ETV
attr interpolationmode none
attr title "packet popped, vector(packetBytes)"
vector 255 KFatTreeAsync.pod[2].aggregateSwitch[0].eth[2].mac.queue queueingTime:vector ETV
attr interpolationmode none
attr source queueingTime(packetPopped)
attr title "queueing times, vector"
attr unit s
vector 256 KFatTreeAsync.pod[2].aggregateSwitch[0].eth[3].mac packetReceivedFromUpper:vector(packetBytes) ETV
attr interpolationmode none
attr source packetReceivedFromUpper
attr title "packet bytes from higher layer, vector(packetBytes)"
vector 257 KFatTreeAsync.pod[2].aggregateSwitch[0].eth[3].mac.queue packetPushed:vector(packetBytes) ETV
attr interpolationmode none
attr title "packet pushed, vector(packetBytes)"
vector 258 KFatTreeAsync.pod[2].aggregateSwitch[0].eth[3].mac.queue queueLength:vector ETV
attr interpolationmode sample-hold
attr source "count(packetPushed) - count(packetPopped) - count(packetRemoved) - count(packetDropped)"
attr title "queue length, vector"
vector 259 KFatTreeAsync.pod[2].aggregateSwitch[0].eth[3].mac.queue packetPopped:vector(packetBytes) ETV
attr interpolationmode none
attr title "packet popped, vector(packetBytes)"
vector 260 KFatTreeAsync.pod[2].aggregateSwitch[0].eth[3].mac.queue queueingTime:vector ETV
attr interpolationmode none
attr source queueingTime(packetPopped)
attr title "queueing times, vector"
attr unit s
vector 261 KFatTreeAsync.pod[2].aggregateSwitch[1].eth[0].mac packetReceivedFromUpper:vector(packetBytes) ETV
attr interpolationmode none
attr source packetReceivedFromUpper
attr title "packet bytes from higher layer, vector(packetBytes)"
vector 262 KFatTreeAsync.pod[2].aggregateSwitch[1].eth[0].mac.queue packetPushed:vector(packetBytes) ETV
attr interpolationmode none
attr title "packet pushed, vector(packetBytes)"
vector 263 KFatTreeAsync.pod[2].aggregateSwitch[1].eth[0].mac.queue queueLength:vector ETV
attr interpolationmode sample-hold
attr source "count(packetPushed) - count(packetPopped) - count(packetRemoved) - count(packetDropped)"
attr title "queue length, vector"
vector 264 KFatTreeAsync.pod[2].aggregateSwitch[1].eth[0].mac.queue packetPopped:vector(packetBytes) ETV
attr interpolationmode none
attr title "packet popped, vector(packetBytes)"
vector 265 KFatTreeAsync.pod[2].aggregateSwitch[1].eth[0].mac.queue queueingTime:vector ETV
attr interpolationmode none
attr source queueingTime(packetPopped)
attr title "queueing times, vector"
attr unit s
vector 266 KFatTreeAsync.pod[2].aggregateSwitch[1].eth[1].mac packetReceivedFromUpper:vector(packetBytes) ETV
attr interpolationmode none
attr source packetReceivedFromUpper
attr title "packet bytes from higher layer, vector(packetBytes)"
vector 267 KFatTreeAsync.pod[2].aggregateSwitch[1].eth[1].mac.queue packetPushed:vector(packetBytes) ETV
attr interpolationmode none
attr title "packet pushed, vector(packetBytes)"
vector 268 KFatTreeAsync.pod[2].aggregateSwitch[1].eth[1].mac.queue queueLength:vector ETV
attr interpolationmode sample-hold
attr source "count(packetPushed) - count(packetPopped) - count(packetRemoved) - count(packetDropped)"
attr title "queue length, vector"
vector 269 KFatTreeAsync.pod[2].aggregateSwitch[1].eth[1].mac.queue packetPopped:vector(packetBytes) ETV
attr interpolationmode none
attr title "packet popped, vector(packetBytes)"
vector 270 KFatTreeAsync.pod[2].aggregateSwitch[1].eth[1].mac.queue queueingTime:vector ETV
attr interpolationmode none
attr source queueingTime(packetPopped)
attr title "queueing times, vector"
attr unit s
vector 271 KFatTreeAsync.pod[2].aggregateSwitch[1].eth[2].mac packetReceivedFromUpper:vector(packetBytes) ETV
attr interpolationmode none
attr source packetReceivedFromUpper
attr title "packet bytes from higher layer, vector(packetBytes)"
vector 272 KFatTreeAsync.pod[2].aggregateSwitch[1].eth[2].mac.queue packetPushed:vector(packetBytes) ETV
attr interpolationmode none
attr title "packet pushed, vector(packetBytes)"
vector 273 KFatTreeAsync.pod[2].aggregateSwitch[1].eth[2].mac.queue queueLength:vector ETV
attr interpolationmode sample-hold
attr source "count(packetPushed) - count(packetPopped) - count(packetRemoved) - count(packetDropped)"
attr title "queue length, vector"
vector 274 KFatTreeAsync.pod[2].aggregateSwitch[1].eth[2].mac.queue packetPopped:vector(packetBytes) ETV
attr interpolationmode none
attr title "packet popped, vector(packetBytes)"
vector 275 KFatTreeAsync.pod[2].aggregateSwitch[1].eth[2].mac.queue queueingTime:vector ETV
attr interpolationmode none
attr source queueingTime(packetPopped)
attr title "queueing times, vector"
attr unit s
vector 276 KFatTreeAsync.pod[2].aggregateSwitch[1].eth[3].mac packetReceivedFromUpper:vector(packetBytes) ETV
attr interpolationmode none
attr source packetReceivedFromUpper
attr title "packet bytes from higher layer, vector(packetBytes)"
vector 277 KFatTreeAsync.pod[2].aggregateSwitch[1].eth[3].mac.queue packetPushed:vector(packetBytes) ETV
attr interpolationmode none
attr title "packet pushed, vector(packetBytes)"
vector 278 KFatTreeAsync.pod[2].aggregateSwitch[1].eth[3].mac.queue queueLength:vector ETV
attr interpolationmode sample-hold
attr source "count(packetPushed) - count(packetPopped) - count(packetRemoved) - count(packetDropped)"
attr title "queue length, vector"
vector 279 KFatTreeAsync.pod[2].aggregateSwitch[1].eth[3].mac.queue packetPopped:vector(packetBytes) ETV
attr interpolationmode none
attr title "packet popped, vector(packetBytes)"
vector 280 KFatTreeAsync.pod[2].aggregateSwitch[1].eth[3].mac.queue queueingTime:vector ETV
attr interpolationmode none
attr source queueingTime(packetPopped)
attr title "queueing times, vector"
attr unit s
vector 281 KFatTreeAsync.pod[2].edgeSwitch[0].eth[0].mac packetReceivedFromUpper:vector(packetBytes) ETV
attr interpolationmode none
attr source packetReceivedFromUpper
attr title "packet bytes from higher layer, vector(packetBytes)"
vector 282 KFatTreeAsync.pod[2].edgeSwitch[0].eth[0].mac.queue packetPushed:vector(packetBytes) ETV
attr interpolationmode none
attr title "packet pushed, vector(packetBytes)"
vector 283 KFatTreeAsync.pod[2].edgeSwitch[0].eth[0].mac.queue queueLength:vector ETV
attr interpolationmode sample-hold
attr source "count(packetPushed) - count(packetPopped) - count(packetRemoved) - count(packetDropped)"
attr title "queue length, vector"
vector 284 KFatTreeAsync.pod[2].edgeSwitch[0].eth[0].mac.queue packetPopped:vector(packetBytes) ETV
attr interpolationmode none
attr title "packet popped, vector(packetBytes)"
vector 285 KFatTreeAsync.pod[2].edgeSwitch[0].eth[0].mac.queue queueingTime:vector ETV
attr interpolationmode none
attr source queueingTime(packetPopped)
attr title "queueing times, vector"
attr unit s
vector 286 KFatTreeAsync.pod[2].edgeSwitch[0].eth[1].mac packetReceivedFromUpper:vector(packetBytes) ETV
attr interpolationmode none
attr source packetReceivedFromUpper
attr title "packet bytes from higher layer, vector(packetBytes)"
vector 287 KFatTreeAsync.pod[2].edgeSwitch[0].eth[1].mac.queue packetPushed:vector(packetBytes) ETV
attr interpolationmode none
attr title "packet pushed, vector(packetBytes)"
vector 288 KFatTreeAsync.pod[2].edgeSwitch[0].eth[1].mac.queue queueLength:vector ETV
attr interpolationmode sample-hold
attr source "count(packetPushed) - count(packetPopped) - count(packetRemoved) - count(packetDropped)"
attr title "queue length, vector"
vector 289 KFatTreeAsync.pod[2].edgeSwitch[0].eth[1].mac.queue packetPopped:vector(packetBytes) ETV
attr interpolationmode none
attr title "packet popped, vector(packetBytes)"
vector 290 KFatTreeAsync.pod[2].edgeSwitch[0].eth[1].mac.queue queueingTime:vector ETV
attr interpolationmode none
attr source queueingTime(packetPopped)
attr title "queueing times, vector"
attr unit s
vector 291 KFatTreeAsync.pod[2].edgeSwitch[0].eth[2].mac packetReceivedFromUpper:vector(packetBytes) ETV
attr interpolationmode none
attr source packetReceivedFromUpper
attr title "packet bytes from higher layer, vector(packetBytes)"
vector 292 KFatTreeAsync.pod[2].edgeSwitch[0].eth[2].mac.queue packetPushed:vector(packetBytes) ETV
attr interpolationmode none
attr title "packet pushed, vector(packetBytes)"
vector 293 KFatTreeAsync.pod[2].edgeSwitch[0].eth[2].mac.queue queueLength:vector ETV
attr interpolationmode sample-hold
attr source "count(packetPushed) - count(packetPopped) - count(packetRemoved) - count(packetDropped)"
attr title "queue length, vector"
vector 294 KFatTreeAsync.pod[2].edgeSwitch[0].eth[2].mac.queue packetPopped:vector(packetBytes) ETV
attr interpolationmode none
attr title "packet popped, vector(packetBytes)"
vector 295 KFatTreeAsync.pod[2].edgeSwitch[0].eth[2].mac.queue queueingTime:vector ETV
attr interpolationmode none
attr source queueingTime(packetPopped)
attr title "queueing times, vector"
attr unit s
vector 296 KFatTreeAsync.pod[2].edgeSwitch[0].eth[3].mac packetReceivedFromUpper:vector(packetBytes) ETV
attr interpolationmode none
attr source packetReceivedFromUpper
attr title "packet bytes from higher layer, vector(packetBytes)"
vector 297 KFatTreeAsync.pod[2].edgeSwitch[0].eth[3].mac.queue packetPushed:vector(packetBytes) ETV
attr interpolationmode none
attr title "packet pushed, vector(packetBytes)"
vector 298 KFatTreeAsync.pod[2].edgeSwitch[0].eth[3].mac.queue queueLength:vector ETV
attr interpolationmode sample-hold
attr source "count(packetPushed) - count(packetPopped) - count(packetRemoved) - count(packetDropped)"
attr title "queue length, vector"
vector 299 KFatTreeAsync.pod[2].edgeSwitch[0].eth[3].mac.queue packetPopped:vector(packetBytes) ETV
attr interpolationmode none
attr title "packet popped, vector(packetBytes)"
vector 300 KFatTreeAsync.pod[2].edgeSwitch[0].eth[3].mac.queue queueingTime:vector ETV
attr interpolationmode none
attr source queueingTime(packetPopped)
attr title "queueing times, vector"
attr unit s
vector 301 KFatTreeAsync.pod[2].edgeSwitch[1].eth[0].mac packetReceivedFromUpper:vector(packetBytes) ETV
attr interpolationmode none
attr source packetReceivedFromUpper
attr title "packet bytes from higher layer, vector(packetBytes)"
vector 302 KFatTreeAsync.pod[2].edgeSwitch[1].eth[0].mac.queue packetPushed:vector(packetBytes) ETV
attr interpolationmode none
attr title "packet pushed, vector(packetBytes)"
vector 303 KFatTreeAsync.pod[2].edgeSwitch[1].eth[0].mac.queue queueLength:vector ETV
attr interpolationmode sample-hold
attr source "count(packetPushed) - count(packetPopped) - count(packetRemoved) - count(packetDropped)"
attr title "queue length, vector"
vector 304 KFatTreeAsync.pod[2].edgeSwitch[1].eth[0].mac.queue packetPopped:vector(packetBytes) ETV
attr interpolationmode none
attr title "packet popped, vector(packetBytes)"
vector 305 KFatTreeAsync.pod[2].edgeSwitch[1].eth[0].mac.queue queueingTime:vector ETV
attr interpolationmode none
attr source queueingTime(packetPopped)
attr title "queueing times, vector"
attr unit s
vector 306 KFatTreeAsync.pod[2].edgeSwitch[1].eth[1].mac packetReceivedFromUpper:vector(packetBytes) ETV
attr interpolationmode none
attr source packetReceivedFromUpper
attr title "packet bytes from higher layer, vector(packetBytes)"
vector 307 KFatTreeAsync.pod[2].edgeSwitch[1].eth[1].mac.queue packetPushed:vector(packetBytes) ETV
attr interpolationmode none
attr title "packet pushed, vector(packetBytes)"
vector 308 KFatTreeAsync.pod[2].edgeSwitch[1].eth[1].mac.queue queueLength:vector ETV
attr interpolationmode sample-hold
attr source "count(packetPushed) - count(packetPopped) - count(packetRemoved) - count(packetDropped)"
attr title "queue length, vector"
vector 309 KFatTreeAsync.pod[2].edgeSwitch[1].eth[1].mac.queue packetPopped:vector(packetBytes) ETV
attr interpolationmode none
attr title "packet popped, vector(packetBytes)"
vector 310 KFatTreeAsync.pod[2].edgeSwitch[1].eth[1].mac.queue queueingTime:vector ETV
attr interpolationmode none
attr source queueingTime(packetPopped)
attr title "queueing times, vector"
attr unit s
vector 311 KFatTreeAsync.pod[2].edgeSwitch[1].eth[2].mac packetReceivedFromUpper:vector(packetBytes) ETV
attr interpolationmode none
attr source packetReceivedFromUpper
attr title "packet bytes from higher layer, vector(packetBytes)"
vector 312 KFatTreeAsync.pod[2].edgeSwitch[1].eth[2].mac.queue packetPushed:vector(packetBytes) ETV
attr interpolationmode none
attr title "packet pushed, vector(packetBytes)"
vector 313 KFatTreeAsync.pod[2].edgeSwitch[1].eth[2].mac.queue queueLength:vector ETV
attr interpolationmode sample-hold
attr source "count(packetPushed) - count(packetPopped) - count(packetRemoved) - count(packetDropped)"
attr title "queue length, vector"
vector 314 KFatTreeAsync.pod[2].edgeSwitch[1].eth[2].mac.queue packetPopped:vector(packetBytes) ETV
attr interpolationmode none
attr title "packet popped, vector(packetBytes)"
vector 315 KFatTreeAsync.pod[2].edgeSwitch[1].eth[2].mac.queue queueingTime:vector ETV
attr interpolationmode none
attr source queueingTime(packetPopped)
attr title "queueing times, vector"
attr unit s
vector 316 KFatTreeAsync.pod[2].edgeSwitch[1].eth[3].mac packetReceivedFromUpper:vector(packetBytes) ETV
attr interpolationmode none
attr source packetReceivedFromUpper
attr title "packet bytes from higher layer, vector(packetBytes)"
vector 317 KFatTreeAsync.pod[2].edgeSwitch[1].eth[3].mac.queue packetPushed:vector(packetBytes) ETV
attr interpolationmode none
attr title "packet pushed, vector(packetBytes)"
vector 318 KFatTreeAsync.pod[2].edgeSwitch[1].eth[3].mac.queue queueLength:vector ETV
attr interpolationmode sample-hold
attr source "count(packetPushed) - count(packetPopped) - count(packetRemoved) - count(packetDropped)"
attr title "queue length, vector"
vector 319 KFatTreeAsync.pod[2].edgeSwitch[1].eth[3].mac.queue packetPopped:vector(packetBytes) ETV
attr interpolationmode none
attr title "packet popped, vector(packetBytes)"
vector 320 KFatTreeAsync.pod[2].edgeSwitch[1].eth[3].mac.queue queueingTime:vector ETV
attr interpolationmode none
attr source queueingTime(packetPopped)
attr title "queueing times, vector"
attr unit s
vector 321 KFatTreeAsync.pod[3].aggregateSwitch[0].eth[0].mac packetReceivedFromUpper:vector(packetBytes) ETV
attr interpolationmode none
attr source packetReceivedFromUpper
attr title "packet bytes from higher layer, vector(packetBytes)"
vector 322 KFatTreeAsync.pod[3].aggregateSwitch[0].eth[0].mac.queue packetPushed:vector(packetBytes) ETV
attr interpolationmode none
attr title "packet pushed, vector(packetBytes)"
vector 323 KFatTreeAsync.pod[3].aggregateSwitch[0].eth[0].mac.queue queueLength:vector ETV
attr interpolationmode sample-hold
attr source "count(packetPushed) - count(packetPopped) - count(packetRemoved) - count(packetDropped)"
attr title "queue length, vector"
vector 324 KFatTreeAsync.pod[3].aggregateSwitch[0].eth[0].mac.queue packetPopped:vector(packetBytes) ETV
attr interpolationmode none
attr title "packet popped, vector(packetBytes)"
vector 325 KFatTreeAsync.pod[3].aggregateSwitch[0].eth[0].mac.queue queueingTime:vector ETV
attr interpolationmode none
attr source queueingTime(packetPopped)
attr title "queueing times, vector"
attr unit s
vector 326 KFatTreeAsync.pod[3].aggregateSwitch[0].eth[1].mac packetReceivedFromUpper:vector(packetBytes) ETV
attr interpolationmode none
attr source packetReceivedFromUpper
attr title "packet bytes from higher layer, vector(packetBytes)"
vector 327 KFatTreeAsync.pod[3].aggregateSwitch[0].eth[1].mac.queue packetPushed:vector(packetBytes) ETV
attr interpolationmode none
attr title "packet pushed, vector(packetBytes)"
vector 328 KFatTreeAsync.pod[3].aggregateSwitch[0].eth[1].mac.queue queueLength:vector ETV
attr interpolationmode sample-hold
attr source "count(packetPushed) - count(packetPopped) - count(packetRemoved) - count(packetDropped)"
attr title "queue length, vector"
vector 329 KFatTreeAsync.pod[3].aggregateSwitch[0].eth[1].mac.queue packetPopped:vector(packetBytes) ETV
attr interpolationmode none
attr title "packet popped, vector(packetBytes)"
vector 330 KFatTreeAsync.pod[3].aggregateSwitch[0].eth[1].mac.queue queueingTime:vector ETV
attr interpolationmode none
attr source queueingTime(packetPopped)
attr title "queueing times, vector"
attr unit s
vector 331 KFatTreeAsync.pod[3].aggregateSwitch[0].eth[2].mac packetReceivedFromUpper:vector(packetBytes) ETV
attr interpolationmode none
attr source packetReceivedFromUpper
attr title "packet bytes from higher layer, vector(packetBytes)"
vector 332 KFatTreeAsync.pod[3].aggregateSwitch[0].eth[2].mac.queue packetPushed:vector(packetBytes) ETV
attr interpolationmode none
attr title "packet pushed, vector(packetBytes)"
vector 333 KFatTreeAsync.pod[3].aggregateSwitch[0].eth[2].mac.queue queueLength:vector ETV
attr interpolationmode sample-hold
attr source "count(packetPushed) - count(packetPopped) - count(packetRemoved) - count(packetDropped)"
attr title "queue length, vector"
vector 334 KFatTreeAsync.pod[3].aggregateSwitch[0].eth[2].mac.queue packetPopped:vector(packetBytes) ETV
attr interpolationmode none
attr title "packet popped, vector(packetBytes)"
vector 335 KFatTreeAsync.pod[3].aggregateSwitch[0].eth[2].mac.queue queueingTime:vector ETV
attr interpolationmode none
attr source queueingTime(packetPopped)
attr title "queueing times, vector"
attr unit s
vector 336 KFatTreeAsync.pod[3].aggregateSwitch[0].eth[3].mac packetReceivedFromUpper:vector(packetBytes) ETV
attr interpolationmode none
attr source packetReceivedFromUpper
attr title "packet bytes from higher layer, vector(packetBytes)"
vector 337 KFatTreeAsync.pod[3].aggregateSwitch[0].eth[3].mac.queue packetPushed:vector(packetBytes) ETV
attr interpolationmode none
attr title "packet pushed, vector(packetBytes)"
vector 338 KFatTreeAsync.pod[3].aggregateSwitch[0].eth[3].mac.queue queueLength:vector ETV
attr interpolationmode sample-hold
attr source "count(packetPushed) - count(packetPopped) - count(packetRemoved) - count(packetDropped)"
attr title "queue length, vector"
vector 339 KFatTreeAsync.pod[3].aggregateSwitch[0].eth[3].mac.queue packetPopped:vector(packetBytes) ETV
attr interpolationmode none
attr title "packet popped, vector(packetBytes)"
vector 340 KFatTreeAsync.pod[3].aggregateSwitch[0].eth[3].mac.queue queueingTime:vector ETV
attr interpolationmode none
attr source queueingTime(packetPopped)
attr title "queueing times, vector"
attr unit s
vector 341 KFatTreeAsync.pod[3].aggregateSwitch[1].eth[0].mac packetReceivedFromUpper:vector(packetBytes) ETV
attr interpolationmode none
attr source packetReceivedFromUpper
attr title "packet bytes from higher layer, vector(packetBytes)"
vector 342 KFatTreeAsync.pod[3].aggregateSwitch[1].eth[0].mac.queue packetPushed:vector(packetBytes) ETV
attr interpolationmode none
attr title "packet pushed, vector(packetBytes)"
vector 343 KFatTreeAsync.pod[3].aggregateSwitch[1].eth[0].mac.queue queueLength:vector ETV
attr interpolationmode sample-hold
attr source "count(packetPushed) - count(packetPopped) - count(packetRemoved) - count(packetDropped)"
attr title "queue length, vector"
vector 344 KFatTreeAsync.pod[3].aggregateSwitch[1].eth[0].mac.queue packetPopped:vector(packetBytes) ETV
attr interpolationmode none
attr title "packet popped, vector(packetBytes)"
vector 345 KFatTreeAsync.pod[3].aggregateSwitch[1].eth[0].mac.queue queueingTime:vector ETV
attr interpolationmode none
attr source queueingTime(packetPopped)
attr title "queueing times, vector"
attr unit s
vector 346 KFatTreeAsync.pod[3].aggregateSwitch[1].eth[1].mac packetReceivedFromUpper:vector(packetBytes) ETV
attr interpolationmode none
attr source packetReceivedFromUpper
attr title "packet bytes from higher layer, vector(packetBytes)"
vector 347 KFatTreeAsync.pod[3].aggregateSwitch[1].eth[1].mac.queue packetPushed:vector(packetBytes) ETV
attr interpolationmode none
attr title "packet pushed, vector(packetBytes)"
vector 348 KFatTreeAsync.pod[3].aggregateSwitch[1].eth[1].mac.queue queueLength:vector ETV
attr interpolationmode sample-hold
attr source "count(packetPushed) - count(packetPopped) - count(packetRemoved) - count(packetDropped)"
attr title "queue length, vector"
vector 349 KFatTreeAsync.pod[3].aggregateSwitch[1].eth[1].mac.queue packetPopped:vector(packetBytes) ETV
attr interpolationmode none
attr title "packet popped, vector(packetBytes)"
vector 350 KFatTreeAsync.pod[3].aggregateSwitch[1].eth[1].mac.queue queueingTime:vector ETV
attr interpolationmode none
attr source queueingTime(packetPopped)
attr title "queueing times, vector"
attr unit s
vector 351 KFatTreeAsync.pod[3].aggregateSwitch[1].eth[2].mac packetReceivedFromUpper:vector(packetBytes) ETV
attr interpolationmode none
attr source packetReceivedFromUpper
attr title "packet bytes from higher layer, vector(packetBytes)"
vector 352 KFatTreeAsync.pod[3].aggregateSwitch[1].eth[2].mac.queue packetPushed:vector(packetBytes) ETV
attr interpolationmode none
attr title "packet pushed, vector(packetBytes)"
vector 353 KFatTreeAsync.pod[3].aggregateSwitch[1].eth[2].mac.queue queueLength:vector ETV
attr interpolationmode sample-hold
attr source "count(packetPushed) - count(packetPopped) - count(packetRemoved) - count(packetDropped)"
attr title "queue length, vector"
vector 354 KFatTreeAsync.pod[3].aggregateSwitch[1].eth[2].mac.queue packetPopped:vector(packetBytes) ETV
attr interpolationmode none
attr title "packet popped, vector(packetBytes)"
vector 355 KFatTreeAsync.pod[3].aggregateSwitch[1].eth[2].mac.queue queueingTime:vector ETV
attr interpolationmode none
attr source queueingTime(packetPopped)
attr title "queueing times, vector"
attr unit s
vector 356 KFatTreeAsync.pod[3].aggregateSwitch[1].eth[3].mac packetReceivedFromUpper:vector(packetBytes) ETV
attr interpolationmode none
attr source packetReceivedFromUpper
attr title "packet bytes from higher layer, vector(packetBytes)"
vector 357 KFatTreeAsync.pod[3].aggregateSwitch[1].eth[3].mac.queue packetPushed:vector(packetBytes) ETV
attr interpolationmode none
attr title "packet pushed, vector(packetBytes)"
vector 358 KFatTreeAsync.pod[3].aggregateSwitch[1].eth[3].mac.queue queueLength:vector ETV
attr interpolationmode sample-hold
attr source "count(packetPushed) - count(packetPopped) - count(packetRemoved) - count(packetDropped)"
attr title "queue length, vector"
vector 359 KFatTreeAsync.pod[3].aggregateSwitch[1].eth[3].mac.queue packetPopped:vector(packetBytes) ETV
attr interpolationmode none
attr title "packet popped, vector(packetBytes)"
vector 360 KFatTreeAsync.pod[3].aggregateSwitch[1].eth[3].mac.queue queueingTime:vector ETV
attr interpolationmode none
attr source queueingTime(packetPopped)
attr title "queueing times, vector"
attr unit s
vector 361 KFatTreeAsync.pod[3].edgeSwitch[0].eth[0].mac packetReceivedFromUpper:vector(packetBytes) ETV
attr interpolationmode none
attr source packetReceivedFromUpper
attr title "packet bytes from higher layer, vector(packetBytes)"
vector 362 KFatTreeAsync.pod[3].edgeSwitch[0].eth[0].mac.queue packetPushed:vector(packetBytes) ETV
attr interpolationmode none
attr title "packet pushed, vector(packetBytes)"
vector 363 KFatTreeAsync.pod[3].edgeSwitch[0].eth[0].mac.queue queueLength:vector ETV
attr interpolationmode sample-hold
attr source "count(packetPushed) - count(packetPopped) - count(packetRemoved) - count(packetDropped)"
attr title "queue length, vector"
vector 364 KFatTreeAsync.pod[3].edgeSwitch[0].eth[0].mac.queue packetPopped:vector(packetBytes) ETV
attr interpolationmode none
attr title "packet popped, vector(packetBytes)"
vector 365 KFatTreeAsync.pod[3].edgeSwitch[0].eth[0].mac.queue queueingTime:vector ETV
attr interpolationmode none
attr source queueingTime(packetPopped)
attr title "queueing times, vector"
attr unit s
vector 366 KFatTreeAsync.pod[3].edgeSwitch[0].eth[1].mac packetReceivedFromUpper:vector(packetBytes) ETV
attr interpolationmode none
attr source packetReceivedFromUpper
attr title "packet bytes from higher layer, vector(packetBytes)"
vector 367 KFatTreeAsync.pod[3].edgeSwitch[0].eth[1].mac.queue packetPushed:vector(packetBytes) ETV
attr interpolationmode none
attr title "packet pushed, vector(packetBytes)"
vector 368 KFatTreeAsync.pod[3].edgeSwitch[0].eth[1].mac.queue queueLength:vector ETV
attr interpolationmode sample-hold
attr source "count(packetPushed) - count(packetPopped) - count(packetRemoved) - count(packetDropped)"
attr title "queue length, vector"
vector 369 KFatTreeAsync.pod[3].edgeSwitch[0].eth[1].mac.queue packetPopped:vector(packetBytes) ETV
attr interpolationmode none
attr title "packet popped, vector(packetBytes)"
vector 370 KFatTreeAsync.pod[3].edgeSwitch[0].eth[1].mac.queue queueingTime:vector ETV
attr interpolationmode none
attr source queueingTime(packetPopped)
attr title "queueing times, vector"
attr unit s
vector 371 KFatTreeAsync.pod[3].edgeSwitch[0].eth[2].mac packetReceivedFromUpper:vector(packetBytes) ETV
attr interpolationmode none
attr source packetReceivedFromUpper
attr title "packet bytes from higher layer, vector(packetBytes)"
vector 372 KFatTreeAsync.pod[3].edgeSwitch[0].eth[2].mac.queue packetPushed:vector(packetBytes) ETV
attr interpolationmode none
attr title "packet pushed, vector(packetBytes)"
vector 373 KFatTreeAsync.pod[3].edgeSwitch[0].eth[2].mac.queue queueLength:vector ETV
attr interpolationmode sample-hold
attr source "count(packetPushed) - count(packetPopped) - count(packetRemoved) - count(packetDropped)"
attr title "queue length, vector"
vector 374 KFatTreeAsync.pod[3].edgeSwitch[0].eth[2].mac.queue packetPopped:vector(packetBytes) ETV
attr interpolationmode none
attr title "packet popped, vector(packetBytes)"
vector 375 KFatTreeAsync.pod[3].edgeSwitch[0].eth[2].mac.queue queueingTime:vector ETV
attr interpolationmode none
attr source queueingTime(packetPopped)
attr title "queueing times, vector"
attr unit s
vector 376 KFatTreeAsync.pod[3].edgeSwitch[0].eth[3].mac packetReceivedFromUpper:vector(packetBytes) ETV
attr interpolationmode none
attr source packetReceivedFromUpper
attr title "packet bytes from higher layer, vector(packetBytes)"
vector 377 KFatTreeAsync.pod[3].edgeSwitch[0].eth[3].mac.queue packetPushed:vector(packetBytes) ETV
attr interpolationmode none
attr title "packet pushed, vector(packetBytes)"
vector 378 KFatTreeAsync.pod[3].edgeSwitch[0].eth[3].mac.queue queueLength:vector ETV
attr interpolationmode sample-hold
attr source "count(packetPushed) - count(packetPopped) - count(packetRemoved) - count(packetDropped)"
[...]
796	2135800 2368 684 57969 0.0000000576 2.50008370144 83 46 1278 103610 132300236
797	2138168 2340 685 57970 0.0000000576 2.50008370144 82 46 1278 102332 130666952
798	2140508 2312 686 57971 0.0000000576 2.50008370144 81 46 1278 101054 129033668
799	2142820 2265 687 57972 0.0000000576 2.50008370144 80 46 1278 99776 127400384
800	2145085 2256 688 57973 0.0000000576 2.50008370144 79 46 1278 98498 125767100
801	2147341 2228 689 57974 0.0000000576 2.50008370144 78 46 1278 97220 124133816
802	2149569 24 789 789 0.0000001248 0.0000001248 1 28 28 28 784
803	2149593 48 831 894 0.0000012256 0.0000022784 2 28 28 56 1568
804	2149641 25 837 837 0.00000123136 0.00000123136 1 28 28 28 784
805	2149666 51 852 1130 0.00000134144 0.00000448832 2 28 28 56 1568
806	2149717 24 859 859 0.0000013472 0.0000013472 1 28 28 28 784
807	2149741 51 873 1075 0.00000145728 0.00000353984 2 28 28 56 1568
808	2149792 25 880 880 0.00000151488 0.00000151488 1 28 28 28 784
809	2149817 23 901 901 0.000002336 0.000002336 1 28 28 28 784
810	2149840 2652 916 57864 0.00000261568 2.50008337216 93 1258 1258 116994 147178452
811	2152492 2457 916 57864 0.00000261568 2.50008337216 93 1 93 4371 272459
812	2154949 2652 917 57867 0.00000261568 2.50008337216 93 1250 1250 116250 145312500
813	2157601 3236 917 57867 0.00000261568 2.50008337216 93 0 3.87232e-06 0.00031538496 1.1581330448384e-09
814	2160837 2373 917 57867 0.00000261568 2.50008337216 93 0 0 0 0
815	2163210 2752 918 52430 0.00000261568 2.50006762432 96 1258 1258 120768 151926144
816	2165962 172 951 52448 0.00000261568 2.50006762432 6 1278 1278 7668 9799704
817	2166134 172 951 52448 0.00000261568 2.50006762432 6 1278 1278 7668 9799704
818	2166306 2618 1003 57865 0.0000034368 2.50008337216 92 1258 1258 115736 145595888
819	2168924 2425 1003 57865 0.0000034368 2.50008337216 92 1 92 4278 263810
820	2171349 2618 1004 57868 0.0000034368 2.50008337216 92 1250 1250 115000 143750000
821	2173967 3193 1004 57868 0.0000034368 2.50008337216 92 0 4.92512e-06 0.00039724896 1.8621706212352e-09
822	2177160 2342 1004 57868 0.0000034368 2.50008337216 92 0 0 0 0
823	2179502 2736 1005 52503 0.0000034368 2.50006846848 96 1258 1258 120768 151926144
824	2182238 171 1039 52522 0.0000034368 2.50006846848 6 1278 1278 7668 9799704
825	2182409 171 1039 52522 0.0000034368 2.50006846848 6 1278 1278 7668 9799704
826	2182580 26 1082 1082 0.00000359744 0.00000359744 1 28 28 28 784
827	2182606 26 1138 1138 0.00000449408 0.00000449408 1 28 28 28 784
828	2182632 7969 1139 57778 0.00000449408 2.50008317312 279 28 1278 355312 454053736
829	2190601 7969 1140 57779 0.00000449408 2.50008317312 279 46 1296 360334 466935364
830	2198570 7969 1140 57779 0.00000449408 2.50008317312 279 64 1296 360352 466937344
831	2206539 14271 1140 57779 0.00000449408 2.50008317312 558 0 2 293 307
832	2220810 7972 1140 57779 0.00000449408 2.50008317312 279 64 1296 360352 466937344
833	2228782 7637 1140 57779 0.00000449408 2.50008317312 279 0 2.1056e-07 6.54048e-06 8.307946496e-13
834	2236419 7960 1142 57828 0.00000449984 2.50008327744 279 64 1296 360352 466937344
835	2244379 7960 1142 57828 0.00000449984 2.50008327744 279 64 1296 360352 466937344
836	2252339 7960 1143 57829 0.00000449984 2.50008327744 279 64 1296 360352 466937344
837	2260299 7960 1144 57832 0.00000449984 2.50008327744 279 46 1278 355330 454055068
838	2268259 78 1152 3794 0.00000460416 0.00001301504 3 28 28 84 2352
839	2268337 7519 1153 57705 0.00000460416 2.50008306784 263 28 1278 334864 427921192
840	2275856 7519 1154 57707 0.00000460416 2.50008306784 263 46 1296 339598 440061508
841	2283375 7519 1154 57707 0.00000460416 2.50008306784 263 64 1296 339616 440063488
842	2290894 13466 1154 57707 0.00000460416 2.50008306784 526 0 2 271 279
843	2304360 7521 1154 57707 0.00000460416 2.50008306784 263 64 1296 339616 440063488
844	2311881 7040 1154 57707 0.00000460416 2.50008306784 263 0 2.1056e-07 4.00064e-06 5.098584064e-13
845	2318921 7492 1156 57758 0.00000460992 2.50008317216 263 64 1296 339616 440063488
846	2326413 7492 1156 57758 0.00000460992 2.50008317216 263 64 1296 339616 440063488
847	2333905 7492 1157 57759 0.00000460992 2.50008317216 263 64 1296 339616 440063488
848	2341397 7492 1158 57764 0.00000460992 2.50008317216 263 46 1278 334882 427922524
849	2348889 26 1159 1159 0.00000460992 0.00000460992 1 28 28 28 784
850	2348915 2596 1174 57813 0.00000469824 2.50008326688 91 1258 1258 114478 144013324
851	2351511 2405 1174 57813 0.00000469824 2.50008326688 91 1 91 4186 255346
852	2353916 2596 1175 57814 0.00000469824 2.50008326688 91 1250 1250 113750 142187500
853	2356512 3158 1175 57814 0.00000469824 2.50008326688 91 0 5.97792e-06 0.00047173728 2.6523030445056e-09
854	2359670 2323 1175 57814 0.00000469824 2.50008326688 91 0 0 0 0
855	2361993 2768 1176 52646 0.00000469824 2.50006972992 96 1258 1258 120768 151926144
856	2364761 173 1211 52666 0.00000469824 2.50006972992 6 1278 1278 7668 9799704
857	2364934 173 1211 52666 0.00000469824 2.50006972992 6 1278 1278 7668 9799704
858	2365107 49 1252 1357 0.00000472 0.00000574976 2 28 28 56 1568
859	2365156 26 1260 1260 0.00000472576 0.00000472576 1 28 28 28 784
860	2365182 52 1281 1592 0.00000483584 0.00000690688 2 28 28 56 1568
861	2365234 26 1288 1288 0.00000489344 0.00000489344 1 28 28 28 784
862	2365260 2519 1296 57863 0.00000491072 2.50008337216 88 1258 1258 110704 139265632
863	2367779 2334 1296 57863 0.00000491072 2.50008337216 88 1 88 3916 231044
864	2370113 2519 1297 57866 0.00000491072 2.50008337216 88 1250 1250 110000 137500000
865	2372632 3135 1297 57866 0.00000491072 2.50008337216 88 2.29504e-06 2.81952e-06 0.00023181056 6.13404904448e-10
866	2375767 26 1372 1372 0.00000575552 0.00000575552 1 28 28 28 784
867	2375793 51 1400 1840 0.0000058656 0.00000795968 2 28 28 56 1568
868	2375844 25 1407 1407 0.0000059232 0.0000059232 1 28 28 28 784
869	2375869 2563 1443 57743 0.00000599424 2.5000831616 90 1258 1258 113220 142430760
870	2378432 2374 1443 57743 0.00000599424 2.5000831616 90 1 90 4095 247065
871	2380806 2563 1444 57744 0.00000599424 2.5000831616 90 1250 1250 112500 140625000
872	2383369 3116 1444 57744 0.00000599424 2.5000831616 90 0 7.03072e-06 0.00054755456 3.5920629952512e-09
873	2386485 2293 1444 57744 0.00000599424 2.5000831616 90 0 0 0 0
874	2388778 2752 1445 52852 0.00000599424 2.50007099136 96 1258 1258 120768 151926144
875	2391530 172 1481 52873 0.00000599424 2.50007099136 6 1278 1278 7668 9799704
876	2391702 172 1481 52873 0.00000599424 2.50007099136 6 1278 1278 7668 9799704
877	2391874 26 1606 1606 0.00000696448 0.00000696448 1 28 28 28 784
878	2391900 2528 1626 57666 0.000007024 2.50008305632 89 1258 1258 111962 140848196
879	2394428 2341 1626 57666 0.000007024 2.50008305632 89 1 89 4005 238965
880	2396769 2529 1627 57667 0.000007024 2.50008305632 89 1250 1250 111250 139062500
881	2399298 3079 1627 57667 0.000007024 2.50008305632 89 0 8.08352e-06 0.00062294848 4.7023680505856e-09
882	2402377 2262 1627 57667 0.000007024 2.50008305632 89 0 0 0 0
883	2404639 2720 1628 53037 0.000007024 2.50007213024 96 1258 1258 120768 151926144
884	2407359 170 1665 53059 0.000007024 2.50007213024 6 1278 1278 7668 9799704
885	2407529 170 1665 53059 0.000007024 2.50007213024 6 1278 1278 7668 9799704
886	2407699 26 1854 1854 0.00000801728 0.00000801728 1 28 28 28 784
887	2407725 2503 1882 57603 0.00000806528 2.50008295296 88 1258 1258 110704 139265632
888	2410228 2318 1882 57603 0.00000806528 2.50008295296 88 1 88 3916 231044
889	2412546 2504 1883 57604 0.00000806528 2.50008295296 88 1250 1250 110000 137500000
890	2415050 3049 1883 57604 0.00000806528 2.50008295296 88 0 9.13632e-06 0.00069571584 5.93474581504e-09
891	2418099 2240 1883 57604 0.00000806528 2.50008295296 88 0 0 0 0
892	2420339 2752 1884 53285 0.00000806528 2.50007318304 96 1258 1258 120768 151926144
893	2423091 172 1922 53308 0.00000806528 2.50007318304 6 1278 1278 7668 9799704
894	2423263 172 1922 53308 0.00000806528 2.50007318304 6 1278 1278 7668 9799704
895	2423435 7630 2089 57735 0.00000880384 2.50008308704 267 28 1278 339976 434454328
896	2431065 7630 2090 57736 0.00000880384 2.50008308704 267 46 1296 344782 446779972
897	2438695 7630 2090 57736 0.00000880384 2.50008308704 267 64 1296 344800 446781952
898	2446325 13668 2090 57736 0.00000880384 2.50008308704 534 0 1 267 267
899	2459993 7636 2090 57736 0.00000880384 2.50008308704 267 64 1296 344800 446781952
900	2467629 7047 2090 57736 0.00000880384 2.50008308704 267 0 3.84e-09 1.152e-07 4.42368e-16
901	2474676 7632 2099 57793 0.0000088096 2.50008319136 267 64 1296 344800 446781952
902	2482308 7632 2099 57793 0.0000088096 2.50008319136 267 64 1296 344800 446781952
903	2489940 7632 2100 57794 0.0000088096 2.50008319136 267 64 1296 344800 446781952
904	2497572 7632 2101 57796 0.0000088096 2.50008319136 267 46 1278 339994 434455660
905	2505204 25 2102 2102 0.0000088096 0.0000088096 1 28 28 28 784
906	2505229 52 2130 2503 0.00000891968 0.00000996096 2 28 28 56 1568
907	2505281 26 2143 2143 0.00000892544 0.00000892544 1 28 28 28 784
908	2505307 52 2172 2955 0.00000903552 0.00001111808 2 28 28 56 1568
909	2505359 26 2179 2179 0.00000909312 0.00000909312 1 28 28 28 784
910	2505385 2508 2221 56973 0.00000911808 2.500081816 88 1258 1258 110704 139265632
911	2507893 2323 2221 56973 0.00000911808 2.500081816 88 1 88 3916 231044
912	2510216 2509 2222 56975 0.00000911808 2.500081816 88 1250 1250 110000 137500000
913	2512725 3083 2222 56975 0.00000911808 2.500081816 88 0 1.018912e-05 0.00077204416 7.3006509539328e-09
914	2515808 2245 2222 56975 0.00000911808 2.500081816 88 0 0 0 0
915	2518053 2736 2223 53581 0.00000911808 2.50007423584 96 1258 1258 120768 151926144
916	2520789 171 2262 53605 0.00000911808 2.50007423584 6 1278 1278 7668 9799704
917	2520960 171 2262 53605 0.00000911808 2.50007423584 6 1278 1278 7668 9799704
918	2521131 26 2518 2518 0.00000996672 0.00000996672 1 28 28 28 784
919	2521157 51 2553 3392 0.0000100768 0.00001217088 2 28 28 56 1568
920	2521208 25 2560 2560 0.0000101344 0.0000101344 1 28 28 28 784
921	2521233 2513 2616 57785 0.00001019392 2.50008318464 88 1258 1258 110704 139265632
922	2523746 2328 2616 57785 0.00001019392 2.50008318464 88 1 88 3916 231044
923	2526074 2513 2617 57786 0.00001019392 2.50008318464 88 1250 1250 110000 137500000
924	2528587 3104 2617 57786 0.00001019392 2.50008318464 88 0 1.124192e-05 0.00085220288 8.8774824566784e-09
925	2531691 2249 2617 57786 0.00001019392 2.50008318464 88 0 0 0 0
926	2533940 2752 2618 53935 0.00001019392 2.50007528864 96 1258 1258 120768 151926144
927	2536692 172 2658 53960 0.00001019392 2.50007528864 6 1278 1278 7668 9799704
928	2536864 172 2658 53960 0.00001019392 2.50007528864 6 1278 1278 7668 9799704
929	2537036 26 2969 2969 0.00001117568 0.00001117568 1 28 28 28 784
930	2537062 2485 3025 57715 0.0000112352 2.50008307936 87 1258 1258 109446 137683068
931	2539547 2302 3025 57715 0.0000112352 2.50008307936 87 1 87 3828 223300
932	2541849 2485 3026 57716 0.0000112352 2.50008307936 87 1250 1250 108750 135937500
933	2544334 3098 3026 57716 0.0000112352 2.50008307936 87 0 1.229472e-05 0.00092478112 1.0578263233843e-08
934	2547432 2224 3026 57716 0.0000112352 2.50008307936 87 0 0 0 0
935	2549656 2736 3027 54337 0.0000112352 2.50007634144 96 1258 1258 120768 151926144
936	2552392 171 3068 54363 0.0000112352 2.50007634144 6 1278 1278 7668 9799704
937	2552563 171 3068 54363 0.0000112352 2.50007634144 6 1278 1278 7668 9799704
938	2552734 26 3406 3406 0.00001222848 0.00001222848 1 28 28 28 784
939	2552760 2451 3448 57638 0.00001227648 2.50008297408 86 1258 1258 108188 136100504
940	2555211 2270 3448 57638 0.00001227648 2.50008297408 86 1 86 3741 215731
941	2557481 2451 3449 57639 0.00001227648 2.50008297408 86 1250 1250 107500 134375000
942	2559932 3061 3449 57639 0.00001227648 2.50008297408 86 0 1.334752e-05 0.00099417792 1.237245656617e-08
943	2562993 2193 3449 57639 0.00001227648 2.50008297408 86 0 0 0 0
944	2565186 2752 3450 54767 0.00001227648 2.50007739424 96 1258 1258 120768 151926144
945	2567938 172 3492 54794 0.00001227648 2.50007739424 6 1278 1278 7668 9799704
946	2568110 172 3492 54794 0.00001227648 2.50007739424 6 1278 1278 7668 9799704
947	2568282 7226 3795 57927 0.00001301504 2.50008361536 253 28 1278 322084 411588352
948	2575508 7226 3796 57930 0.00001301504 2.50008361536 253 46 1296 326638 423265348
949	2582734 7226 3796 57930 0.00001301504 2.50008361536 253 64 1296 326656 423267328
950	2589960 12945 3796 57930 0.00001301504 2.50008361536 506 0 2 263 273
951	2602905 7233 3796 57930 0.00001301504 2.50008361536 253 64 1296 326656 423267328
952	2610138 6899 3796 57930 0.00001301504 2.50008361536 253 0 2.1056e-07 5.14336e-06 6.469520384e-13
953	2617037 7197 3805 57902 0.0000130208 2.50008351104 252 64 1296 325360 421587712
954	2624234 7197 3805 57902 0.0000130208 2.50008351104 252 64 1296 325360 421587712
955	2631431 7197 3806 57903 0.0000130208 2.50008351104 252 64 1296 325360 421587712
956	2638628 7197 3807 57905 0.0000130208 2.50008351104 252 46 1278 320824 409956400
957	2645825 25 3808 3808 0.0000130208 0.0000130208 1 28 28 28 784
958	2645850 52 3836 4321 0.00001313088 0.00001417216 2 28 28 56 1568
959	2645902 26 3849 3849 0.00001313664 0.00001313664 1 28 28 28 784
960	2645928 52 3878 4885 0.00001324672 0.00001532928 2 28 28 56 1568
961	2645980 26 3885 3885 0.00001330432 0.00001330432 1 28 28 28 784
962	2646006 2429 3934 57575 0.00001332928 2.5000828688 85 1258 1258 106930 134517940
963	2648435 2250 3934 57575 0.00001332928 2.5000828688 85 1 85 3655 208335
964	2650685 2429 3935 57576 0.00001332928 2.5000828688 85 1250 1250 106250 132812500
965	2653114 3031 3935 57576 0.00001332928 2.5000828688 85 0 1.429504e-05 0.0010608912 1.4261232612454e-08
966	2656145 2174 3935 57576 0.00001332928 2.5000828688 85 0 0 0 0
967	2658319 2752 3936 55211 0.00001332928 2.50007844704 96 1258 1258 120768 151926144
968	2661071 172 3979 55239 0.00001332928 2.50007844704 6 1278 1278 7668 9799704
969	2661243 172 3979 55239 0.00001332928 2.50007844704 6 1278 1278 7668 9799704
970	2661415 26 4336 4336 0.00001417792 0.00001417792 1 28 28 28 784
971	2661441 50 4371 5462 0.000014288 0.00001638208 2 28 28 56 1568
972	2661491 25 4378 4378 0.0000143456 0.0000143456 1 28 28 28 784
973	2661516 2388 4462 57495 0.00001440512 2.50008276352 84 1258 1258 105672 132935376
974	2663904 2211 4462 57495 0.00001440512 2.50008276352 84 1 84 3570 201110
975	2666115 2389 4463 57497 0.00001440512 2.50008276352 84 1250 1250 105000 131250000
976	2668504 2982 4463 57497 0.00001440512 2.50008276352 84 0 1.503392e-05 0.00112284352 1.6170413123789e-08
977	2671486 2137 4463 57497 0.00001440512 2.50008276352 84 0 0 0 0
978	2673623 2720 4464 55683 0.00001440512 2.50007949984 96 1258 1258 120768 151926144
979	2676343 170 4508 55712 0.00001440512 2.50007949984 6 1278 1278 7668 9799704
980	2676513 170 4508 55712 0.00001440512 2.50007949984 6 1278 1278 7668 9799704
981	2676683 26 4899 4899 0.00001538688 0.00001538688 1 28 28 28 784
982	2676709 2368 4976 57496 0.0000154464 2.50008276352 83 1258 1258 104414 131352812
983	2679077 2193 4976 57496 0.0000154464 2.50008276352 83 1 83 3486 194054
984	2681270 2369 4977 57498 0.0000154464 2.50008276352 83 1250 1250 103750 129687500
985	2683639 2958 4977 57498 0.0000154464 2.50008276352 83 0 1.598144e-05 0.00118731456 1.8312698967245e-08
986	2686597 2120 4977 57498 0.0000154464 2.50008276352 83 0 0 0 0
987	2688717 2736 4978 56197 0.0000154464 2.50008055264 96 1258 1258 120768 151926144
988	2691453 171 5023 56227 0.0000154464 2.50008055264 6 1278 1278 7668 9799704
989	2691624 171 5023 56227 0.0000154464 2.50008055264 6 1278 1278 7668 9799704
990	2691795 26 5476 5476 0.00001643968 0.00001643968 1 28 28 28 784
991	2691821 2338 5532 56816 0.00001648768 2.50008160544 82 1258 1258 103156 129770248
992	2694159 2165 5532 56816 0.00001648768 2.50008160544 82 1 82 3403 187165
993	2696324 2339 5533 56817 0.00001648768 2.50008160544 82 1250 1250 102500 128125000
994	2698663 2924 5533 56817 0.00001648768 2.50008160544 82 0 1.703424e-05 0.00124648352 2.0446594007142e-08
995	2701587 2093 5533 56817 0.00001648768 2.50008160544 82 0 0 0 0
996	2703680 2752 5534 56767 0.00001648768 2.50008160544 96 1258 1258 120768 151926144
997	2706432 172 5580 56798 0.00001648768 2.50008160544 6 1278 1278 7668 9799704
998	2706604 172 5580 56798 0.00001648768 2.50008160544 6 1278 1278 7668 9799704
999	2706776 2349 6145 57428 0.00001754048 2.50008265824 82 1258 1258 103156 129770248
1000	2709125 2258 6145 57428 0.00001754048 2.50008265824 82 1 82 3403 187165
1001	2711383 2432 6146 57429 0.00001754048 2.50008265824 82 1250 1250 102500 128125000
1002	2713815 3018 6146 57429 0.00001754048 2.50008265824 82 0 1.755872e-05 0.00131577664 2.278086738432e-08
1003	2716833 2186 6146 57429 0.00001754048 2.50008265824 82 0 0 0 0
1004	2719019 2848 6147 57379 0.00001754048 2.50008265824 96 1258 1258 120768 151926144
1005	2721867 178 6194 57411 0.00001754048 2.50008265824 6 1278 1278 7668 9799704
1006	2722045 178 6194 57411 0.00001754048 2.50008265824 6 1278 1278 7668 9799704
1007	2722223 451 11474 52414 0.1 2.5 25 0 1600000 8000000 12800000000000
1008	2722674 451 11547 52487 0.1 2.5 25 0 1600000 8000000 12800000000000
1009	2723125 451 11690 52630 0.1 2.5 25 0 1600000 8000000 12800000000000
1010	2723576 451 11896 52836 0.1 2.5 25 0 1600000 8000000 12800000000000
1011	2724027 451 12081 53021 0.1 2.5 25 0 1600000 8000000 12800000000000
1012	2724478 451 12329 53269 0.1 2.5 25 0 1600000 8000000 12800000000000
1013	2724929 451 12625 53565 0.1 2.5 25 0 1600000 8000000 12800000000000
1014	2725380 451 12979 53919 0.1 2.5 25 0 1600000 8000000 12800000000000
1015	2725831 451 13381 54321 0.1 2.5 25 0 1600000 8000000 12800000000000
1016	2726282 451 13811 54751 0.1 2.5 25 0 1600000 8000000 12800000000000
1017	2726733 451 14255 55195 0.1 2.5 25 0 1600000 8000000 12800000000000
1018	2727184 451 14727 55667 0.1 2.5 25 0 1600000 8000000 12800000000000
1019	2727635 451 15241 56181 0.1 2.5 25 0 1600000 8000000 12800000000000
1020	2728086 451 15811 56751 0.1 2.5 25 0 1600000 8000000 12800000000000
1021	2728537 451 16423 57363 0.1 2.5 25 0 1600000 8000000 12800000000000
1007	2728988 41 57994 57994 2.50008370144 2.50008370144 1 1553139348.6181 1553139348.6181 1553139348.6181 2.412241836226e+18
1008	2729029 41 57994 57994 2.50008370144 2.50008370144 1 1433667091.0321 1433667091.0321 1433667091.0321 2.0554013279085e+18
1009	2729070 41 57994 57994 2.50008370144 2.50008370144 1 1314194833.4461 1314194833.4461 1314194833.4461 1.7271080602565e+18
1010	2729111 41 57994 57994 2.50008370144 2.50008370144 1 1194722575.8601 1194722575.8601 1194722575.8601 1.4273620332698e+18
1011	2729152 41 57994 57994 2.50008370144 2.50008370144 1 1075250318.2741 1075250318.2741 1075250318.2741 1.1561632469485e+18
1012	2729193 41 57994 57994 2.50008370144 2.50008370144 1 955778060.68808 955778060.68808 955778060.68808 9.1351170129267e+17
1013	2729234 41 57994 57994 2.50008370144 2.50008370144 1 955778060.68808 955778060.68808 955778060.68808 9.1351170129267e+17
1014	2729275 41 57994 57994 2.50008370144 2.50008370144 1 955778060.68808 955778060.68808 955778060.68808 9.1351170129267e+17
1015	2729316 41 57994 57994 2.50008370144 2.50008370144 1 836305803.10207 836305803.10207 836305803.10207 6.994073963022e+17
1016	2729357 41 57994 57994 2.50008370144 2.50008370144 1 716833545.51606 716833545.51606 716833545.51606 5.1385033197713e+17
1017	2729398 41 57994 57994 2.50008370144 2.50008370144 1 597361287.93005 597361287.93005 597361287.93005 3.5684050831745e+17
1018	2729439 41 57994 57994 2.50008370144 2.50008370144 1 477889030.34404 477889030.34404 477889030.34404 2.2837792532317e+17
1019	2729480 41 57994 57994 2.50008370144 2.50008370144 1 358416772.75803 358416772.75803 358416772.75803 1.2846258299428e+17
1020	2729521 41 57994 57994 2.50008370144 2.50008370144 1 238944515.17202 238944515.17202 238944515.17202 5.7094481330792e+16
1021	2729562 41 57994 57994 2.50008370144 2.50008370144 1 238944515.17202 238944515.17202 238944515.17202 5.7094481330792e+16

