file 254360 1655300102                                          
version 2
run General-0-20220615-15:20:26-11833
attr configname General
attr datetime 20220615-15:20:26
attr experiment General
attr inifile kFatTreeAsync.ini
attr iterationvars ""
attr iterationvarsf ""
attr measurement ""
attr network KFatTreeNew
attr processid 11833
attr repetition 0
attr replication #0
attr resultdir results
attr runnumber 0
attr seedset 0
param **.k 4
param **.clients 1
param **.client[*].numApps 1
param **.client[*].app[0].typename "\"ClientAppNoCoord\""
param **.client[*].app[0].localPort 100
param **.client[*].app[0].destPort 100
param **.client[*].app[0].messageLength 1250B
param **.client[*].app[0].sendInterval 0.5s
param **.client[*].app[0].destAddresses "moduleListByPath(\"**.replica[*]\")"
param **.replica[*].numApps 1
param **.replica[*].app[0].typename "\"ReplicaAppBroadcast\""
param **.replica[*].app[0].localPort 100
param **.replica[*].app[0].destPort 100
param **.replica[*].app[0].messageLength 1250B
param **.replica[*].app[0].destAddresses "\"224.0.1.3\""
param **.replica[*].app[0].thisId parentIndex()
param **.replica[*].app[0].joinLocalMulticastGroups true
param **.app[0].startTime 0s
param **.app[0].stopTime 30s
param **.app[0].delayLimit 3s
param **.configurator.config "xmldoc(\"config2.xml\")"
param **.configurator.addStaticRoutes true

vector 0 KFatTreeNew.coreSwitch[0].eth[0].encap encapPk:vector(packetBytes) ETV
attr interpolationmode none
attr source encapPk
attr title "packets encapsulated, vector(packetBytes)"
vector 1 KFatTreeNew.coreSwitch[0].eth[1].encap encapPk:vector(packetBytes) ETV
attr interpolationmode none
attr source encapPk
attr title "packets encapsulated, vector(packetBytes)"
vector 2 KFatTreeNew.coreSwitch[0].eth[2].encap encapPk:vector(packetBytes) ETV
attr interpolationmode none
attr source encapPk
attr title "packets encapsulated, vector(packetBytes)"
vector 3 KFatTreeNew.coreSwitch[0].eth[3].encap encapPk:vector(packetBytes) ETV
attr interpolationmode none
attr source encapPk
attr title "packets encapsulated, vector(packetBytes)"
vector 4 KFatTreeNew.coreSwitch[1].eth[0].encap encapPk:vector(packetBytes) ETV
attr interpolationmode none
attr source encapPk
attr title "packets encapsulated, vector(packetBytes)"
vector 5 KFatTreeNew.coreSwitch[1].eth[1].encap encapPk:vector(packetBytes) ETV
attr interpolationmode none
attr source encapPk
attr title "packets encapsulated, vector(packetBytes)"
vector 6 KFatTreeNew.coreSwitch[1].eth[2].encap encapPk:vector(packetBytes) ETV
attr interpolationmode none
attr source encapPk
attr title "packets encapsulated, vector(packetBytes)"
vector 7 KFatTreeNew.coreSwitch[1].eth[3].encap encapPk:vector(packetBytes) ETV
attr interpolationmode none
attr source encapPk
attr title "packets encapsulated, vector(packetBytes)"
vector 8 KFatTreeNew.coreSwitch[2].eth[0].encap encapPk:vector(packetBytes) ETV
attr interpolationmode none
attr source encapPk
attr title "packets encapsulated, vector(packetBytes)"
vector 9 KFatTreeNew.coreSwitch[2].eth[1].encap encapPk:vector(packetBytes) ETV
attr interpolationmode none
attr source encapPk
attr title "packets encapsulated, vector(packetBytes)"
vector 10 KFatTreeNew.coreSwitch[2].eth[2].encap encapPk:vector(packetBytes) ETV
attr interpolationmode none
attr source encapPk
attr title "packets encapsulated, vector(packetBytes)"
vector 11 KFatTreeNew.coreSwitch[2].eth[3].encap encapPk:vector(packetBytes) ETV
attr interpolationmode none
attr source encapPk
attr title "packets encapsulated, vector(packetBytes)"
vector 12 KFatTreeNew.coreSwitch[3].eth[0].encap encapPk:vector(packetBytes) ETV
attr interpolationmode none
attr source encapPk
attr title "packets encapsulated, vector(packetBytes)"
vector 13 KFatTreeNew.coreSwitch[3].eth[1].encap encapPk:vector(packetBytes) ETV
attr interpolationmode none
attr source encapPk
attr title "packets encapsulated, vector(packetBytes)"
vector 14 KFatTreeNew.coreSwitch[3].eth[2].encap encapPk:vector(packetBytes) ETV
attr interpolationmode none
attr source encapPk
attr title "packets encapsulated, vector(packetBytes)"
vector 15 KFatTreeNew.coreSwitch[3].eth[3].encap encapPk:vector(packetBytes) ETV
attr interpolationmode none
attr source encapPk
attr title "packets encapsulated, vector(packetBytes)"
vector 16 KFatTreeNew.pod[0].aggregateSwitch[0].eth[0].encap encapPk:vector(packetBytes) ETV
attr interpolationmode none
attr source encapPk
attr title "packets encapsulated, vector(packetBytes)"
vector 17 KFatTreeNew.pod[0].aggregateSwitch[0].eth[1].encap encapPk:vector(packetBytes) ETV
attr interpolationmode none
attr source encapPk
attr title "packets encapsulated, vector(packetBytes)"
vector 18 KFatTreeNew.pod[0].aggregateSwitch[0].eth[2].encap encapPk:vector(packetBytes) ETV
attr interpolationmode none
attr source encapPk
attr title "packets encapsulated, vector(packetBytes)"
vector 19 KFatTreeNew.pod[0].aggregateSwitch[0].eth[3].encap encapPk:vector(packetBytes) ETV
attr interpolationmode none
attr source encapPk
attr title "packets encapsulated, vector(packetBytes)"
vector 20 KFatTreeNew.pod[0].aggregateSwitch[1].eth[0].encap encapPk:vector(packetBytes) ETV
attr interpolationmode none
attr source encapPk
attr title "packets encapsulated, vector(packetBytes)"
vector 21 KFatTreeNew.pod[0].aggregateSwitch[1].eth[1].encap encapPk:vector(packetBytes) ETV
attr interpolationmode none
attr source encapPk
attr title "packets encapsulated, vector(packetBytes)"
vector 22 KFatTreeNew.pod[0].aggregateSwitch[1].eth[2].encap encapPk:vector(packetBytes) ETV
attr interpolationmode none
attr source encapPk
attr title "packets encapsulated, vector(packetBytes)"
vector 23 KFatTreeNew.pod[0].aggregateSwitch[1].eth[3].encap encapPk:vector(packetBytes) ETV
attr interpolationmode none
attr source encapPk
attr title "packets encapsulated, vector(packetBytes)"
vector 24 KFatTreeNew.pod[0].edgeSwitch[0].eth[0].encap encapPk:vector(packetBytes) ETV
attr interpolationmode none
attr source encapPk
attr title "packets encapsulated, vector(packetBytes)"
vector 25 KFatTreeNew.pod[0].edgeSwitch[0].eth[1].encap encapPk:vector(packetBytes) ETV
attr interpolationmode none
attr source encapPk
attr title "packets encapsulated, vector(packetBytes)"
vector 26 KFatTreeNew.pod[0].edgeSwitch[0].eth[2].encap encapPk:vector(packetBytes) ETV
attr interpolationmode none
attr source encapPk
attr title "packets encapsulated, vector(packetBytes)"
vector 27 KFatTreeNew.pod[0].edgeSwitch[0].eth[3].encap encapPk:vector(packetBytes) ETV
attr interpolationmode none
attr source encapPk
attr title "packets encapsulated, vector(packetBytes)"
vector 28 KFatTreeNew.pod[0].edgeSwitch[1].eth[0].encap encapPk:vector(packetBytes) ETV
attr interpolationmode none
attr source encapPk
attr title "packets encapsulated, vector(packetBytes)"
vector 29 KFatTreeNew.pod[0].edgeSwitch[1].eth[1].encap encapPk:vector(packetBytes) ETV
attr interpolationmode none
attr source encapPk
attr title "packets encapsulated, vector(packetBytes)"
vector 30 KFatTreeNew.pod[0].edgeSwitch[1].eth[2].encap encapPk:vector(packetBytes) ETV
attr interpolationmode none
attr source encapPk
attr title "packets encapsulated, vector(packetBytes)"
vector 31 KFatTreeNew.pod[0].edgeSwitch[1].eth[3].encap encapPk:vector(packetBytes) ETV
attr interpolationmode none
attr source encapPk
attr title "packets encapsulated, vector(packetBytes)"
vector 32 KFatTreeNew.pod[1].aggregateSwitch[0].eth[0].encap encapPk:vector(packetBytes) ETV
attr interpolationmode none
attr source encapPk
attr title "packets encapsulated, vector(packetBytes)"
vector 33 KFatTreeNew.pod[1].aggregateSwitch[0].eth[1].encap encapPk:vector(packetBytes) ETV
attr interpolationmode none
attr source encapPk
attr title "packets encapsulated, vector(packetBytes)"
vector 34 KFatTreeNew.pod[1].aggregateSwitch[0].eth[2].encap encapPk:vector(packetBytes) ETV
attr interpolationmode none
attr source encapPk
attr title "packets encapsulated, vector(packetBytes)"
vector 35 KFatTreeNew.pod[1].aggregateSwitch[0].eth[3].encap encapPk:vector(packetBytes) ETV
attr interpolationmode none
attr source encapPk
attr title "packets encapsulated, vector(packetBytes)"
vector 36 KFatTreeNew.pod[1].aggregateSwitch[1].eth[0].encap encapPk:vector(packetBytes) ETV
attr interpolationmode none
attr source encapPk
attr title "packets encapsulated, vector(packetBytes)"
vector 37 KFatTreeNew.pod[1].aggregateSwitch[1].eth[1].encap encapPk:vector(packetBytes) ETV
attr interpolationmode none
attr source encapPk
attr title "packets encapsulated, vector(packetBytes)"
vector 38 KFatTreeNew.pod[1].aggregateSwitch[1].eth[2].encap encapPk:vector(packetBytes) ETV
attr interpolationmode none
attr source encapPk
attr title "packets encapsulated, vector(packetBytes)"
vector 39 KFatTreeNew.pod[1].aggregateSwitch[1].eth[3].encap encapPk:vector(packetBytes) ETV
attr interpolationmode none
attr source encapPk
attr title "packets encapsulated, vector(packetBytes)"
vector 40 KFatTreeNew.pod[1].edgeSwitch[0].eth[0].encap encapPk:vector(packetBytes) ETV
attr interpolationmode none
attr source encapPk
attr title "packets encapsulated, vector(packetBytes)"
vector 41 KFatTreeNew.pod[1].edgeSwitch[0].eth[1].encap encapPk:vector(packetBytes) ETV
attr interpolationmode none
attr source encapPk
attr title "packets encapsulated, vector(packetBytes)"
vector 42 KFatTreeNew.pod[1].edgeSwitch[0].eth[2].encap encapPk:vector(packetBytes) ETV
attr interpolationmode none
attr source encapPk
attr title "packets encapsulated, vector(packetBytes)"
vector 43 KFatTreeNew.pod[1].edgeSwitch[0].eth[3].encap encapPk:vector(packetBytes) ETV
attr interpolationmode none
attr source encapPk
attr title "packets encapsulated, vector(packetBytes)"
vector 44 KFatTreeNew.pod[1].edgeSwitch[1].eth[0].encap encapPk:vector(packetBytes) ETV
attr interpolationmode none
attr source encapPk
attr title "packets encapsulated, vector(packetBytes)"
vector 45 KFatTreeNew.pod[1].edgeSwitch[1].eth[1].encap encapPk:vector(packetBytes) ETV
attr interpolationmode none
attr source encapPk
attr title "packets encapsulated, vector(packetBytes)"
vector 46 KFatTreeNew.pod[1].edgeSwitch[1].eth[2].encap encapPk:vector(packetBytes) ETV
attr interpolationmode none
attr source encapPk
attr title "packets encapsulated, vector(packetBytes)"
vector 47 KFatTreeNew.pod[1].edgeSwitch[1].eth[3].encap encapPk:vector(packetBytes) ETV
attr interpolationmode none
attr source encapPk
attr title "packets encapsulated, vector(packetBytes)"
vector 48 KFatTreeNew.pod[2].aggregateSwitch[0].eth[0].encap encapPk:vector(packetBytes) ETV
attr interpolationmode none
attr source encapPk
attr title "packets encapsulated, vector(packetBytes)"
vector 49 KFatTreeNew.pod[2].aggregateSwitch[0].eth[1].encap encapPk:vector(packetBytes) ETV
attr interpolationmode none
attr source encapPk
attr title "packets encapsulated, vector(packetBytes)"
vector 50 KFatTreeNew.pod[2].aggregateSwitch[0].eth[2].encap encapPk:vector(packetBytes) ETV
attr interpolationmode none
attr source encapPk
attr title "packets encapsulated, vector(packetBytes)"
vector 51 KFatTreeNew.pod[2].aggregateSwitch[0].eth[3].encap encapPk:vector(packetBytes) ETV
attr interpolationmode none
attr source encapPk
attr title "packets encapsulated, vector(packetBytes)"
vector 52 KFatTreeNew.pod[2].aggregateSwitch[1].eth[0].encap encapPk:vector(packetBytes) ETV
attr interpolationmode none
attr source encapPk
attr title "packets encapsulated, vector(packetBytes)"
vector 53 KFatTreeNew.pod[2].aggregateSwitch[1].eth[1].encap encapPk:vector(packetBytes) ETV
attr interpolationmode none
attr source encapPk
attr title "packets encapsulated, vector(packetBytes)"
vector 54 KFatTreeNew.pod[2].aggregateSwitch[1].eth[2].encap encapPk:vector(packetBytes) ETV
attr interpolationmode none
attr source encapPk
attr title "packets encapsulated, vector(packetBytes)"
vector 55 KFatTreeNew.pod[2].aggregateSwitch[1].eth[3].encap encapPk:vector(packetBytes) ETV
attr interpolationmode none
attr source encapPk
attr title "packets encapsulated, vector(packetBytes)"
vector 56 KFatTreeNew.pod[2].edgeSwitch[0].eth[0].encap encapPk:vector(packetBytes) ETV
attr interpolationmode none
attr source encapPk
attr title "packets encapsulated, vector(packetBytes)"
vector 57 KFatTreeNew.pod[2].edgeSwitch[0].eth[1].encap encapPk:vector(packetBytes) ETV
attr interpolationmode none
attr source encapPk
attr title "packets encapsulated, vector(packetBytes)"
vector 58 KFatTreeNew.pod[2].edgeSwitch[0].eth[2].encap encapPk:vector(packetBytes) ETV
attr interpolationmode none
attr source encapPk
attr title "packets encapsulated, vector(packetBytes)"
vector 59 KFatTreeNew.pod[2].edgeSwitch[0].eth[3].encap encapPk:vector(packetBytes) ETV
attr interpolationmode none
attr source encapPk
attr title "packets encapsulated, vector(packetBytes)"
vector 60 KFatTreeNew.pod[2].edgeSwitch[1].eth[0].encap encapPk:vector(packetBytes) ETV
attr interpolationmode none
attr source encapPk
attr title "packets encapsulated, vector(packetBytes)"
vector 61 KFatTreeNew.pod[2].edgeSwitch[1].eth[1].encap encapPk:vector(packetBytes) ETV
attr interpolationmode none
attr source encapPk
attr title "packets encapsulated, vector(packetBytes)"
vector 62 KFatTreeNew.pod[2].edgeSwitch[1].eth[2].encap encapPk:vector(packetBytes) ETV
attr interpolationmode none
attr source encapPk
attr title "packets encapsulated, vector(packetBytes)"
vector 63 KFatTreeNew.pod[2].edgeSwitch[1].eth[3].encap encapPk:vector(packetBytes) ETV
attr interpolationmode none
attr source encapPk
attr title "packets encapsulated, vector(packetBytes)"
vector 64 KFatTreeNew.pod[3].aggregateSwitch[0].eth[0].encap encapPk:vector(packetBytes) ETV
attr interpolationmode none
attr source encapPk
attr title "packets encapsulated, vector(packetBytes)"
vector 65 KFatTreeNew.pod[3].aggregateSwitch[0].eth[1].encap encapPk:vector(packetBytes) ETV
attr interpolationmode none
attr source encapPk
attr title "packets encapsulated, vector(packetBytes)"
vector 66 KFatTreeNew.pod[3].aggregateSwitch[0].eth[2].encap encapPk:vector(packetBytes) ETV
attr interpolationmode none
attr source encapPk
attr title "packets encapsulated, vector(packetBytes)"
vector 67 KFatTreeNew.pod[3].aggregateSwitch[0].eth[3].encap encapPk:vector(packetBytes) ETV
attr interpolationmode none
attr source encapPk
attr title "packets encapsulated, vector(packetBytes)"
vector 68 KFatTreeNew.pod[3].aggregateSwitch[1].eth[0].encap encapPk:vector(packetBytes) ETV
attr interpolationmode none
attr source encapPk
attr title "packets encapsulated, vector(packetBytes)"
vector 69 KFatTreeNew.pod[3].aggregateSwitch[1].eth[1].encap encapPk:vector(packetBytes) ETV
attr interpolationmode none
attr source encapPk
attr title "packets encapsulated, vector(packetBytes)"
vector 70 KFatTreeNew.pod[3].aggregateSwitch[1].eth[2].encap encapPk:vector(packetBytes) ETV
attr interpolationmode none
attr source encapPk
attr title "packets encapsulated, vector(packetBytes)"
vector 71 KFatTreeNew.pod[3].aggregateSwitch[1].eth[3].encap encapPk:vector(packetBytes) ETV
attr interpolationmode none
attr source encapPk
attr title "packets encapsulated, vector(packetBytes)"
vector 72 KFatTreeNew.pod[3].edgeSwitch[0].eth[0].encap encapPk:vector(packetBytes) ETV
attr interpolationmode none
attr source encapPk
attr title "packets encapsulated, vector(packetBytes)"
vector 73 KFatTreeNew.pod[3].edgeSwitch[0].eth[1].encap encapPk:vector(packetBytes) ETV
attr interpolationmode none
attr source encapPk
attr title "packets encapsulated, vector(packetBytes)"
vector 74 KFatTreeNew.pod[3].edgeSwitch[0].eth[2].encap encapPk:vector(packetBytes) ETV
attr interpolationmode none
attr source encapPk
attr title "packets encapsulated, vector(packetBytes)"
vector 75 KFatTreeNew.pod[3].edgeSwitch[0].eth[3].encap encapPk:vector(packetBytes) ETV
attr interpolationmode none
attr source encapPk
attr title "packets encapsulated, vector(packetBytes)"
vector 76 KFatTreeNew.pod[3].edgeSwitch[1].eth[0].encap encapPk:vector(packetBytes) ETV
attr interpolationmode none
attr source encapPk
attr title "packets encapsulated, vector(packetBytes)"
vector 77 KFatTreeNew.pod[3].edgeSwitch[1].eth[1].encap encapPk:vector(packetBytes) ETV
attr interpolationmode none
attr source encapPk
attr title "packets encapsulated, vector(packetBytes)"
vector 78 KFatTreeNew.pod[3].edgeSwitch[1].eth[2].encap encapPk:vector(packetBytes) ETV
attr interpolationmode none
attr source encapPk
attr title "packets encapsulated, vector(packetBytes)"
vector 79 KFatTreeNew.pod[3].edgeSwitch[1].eth[3].encap encapPk:vector(packetBytes) ETV
attr interpolationmode none
attr source encapPk
attr title "packets encapsulated, vector(packetBytes)"
vector 80 KFatTreeNew.hosts.clientSwitch.eth[0].encap encapPk:vector(packetBytes) ETV
attr interpolationmode none
attr source encapPk
attr title "packets encapsulated, vector(packetBytes)"
vector 81 KFatTreeNew.hosts.clientSwitch.eth[1].encap encapPk:vector(packetBytes) ETV
attr interpolationmode none
attr source encapPk
attr title "packets encapsulated, vector(packetBytes)"
vector 82 KFatTreeNew.hosts.replica[0].eth[0].encap encapPk:vector(packetBytes) ETV
attr interpolationmode none
attr source encapPk
attr title "packets encapsulated, vector(packetBytes)"
vector 83 KFatTreeNew.hosts.replica[1].eth[0].encap encapPk:vector(packetBytes) ETV
attr interpolationmode none
attr source encapPk
attr title "packets encapsulated, vector(packetBytes)"
vector 84 KFatTreeNew.hosts.replica[2].eth[0].encap encapPk:vector(packetBytes) ETV
attr interpolationmode none
attr source encapPk
attr title "packets encapsulated, vector(packetBytes)"
vector 85 KFatTreeNew.hosts.replica[3].eth[0].encap encapPk:vector(packetBytes) ETV
attr interpolationmode none
attr source encapPk
attr title "packets encapsulated, vector(packetBytes)"
vector 86 KFatTreeNew.hosts.replica[4].eth[0].encap encapPk:vector(packetBytes) ETV
attr interpolationmode none
attr source encapPk
attr title "packets encapsulated, vector(packetBytes)"
vector 87 KFatTreeNew.hosts.replica[5].eth[0].encap encapPk:vector(packetBytes) ETV
attr interpolationmode none
attr source encapPk
attr title "packets encapsulated, vector(packetBytes)"
vector 88 KFatTreeNew.hosts.replica[6].eth[0].encap encapPk:vector(packetBytes) ETV
attr interpolationmode none
attr source encapPk
attr title "packets encapsulated, vector(packetBytes)"
vector 89 KFatTreeNew.hosts.replica[7].eth[0].encap encapPk:vector(packetBytes) ETV
attr interpolationmode none
attr source encapPk
attr title "packets encapsulated, vector(packetBytes)"
vector 90 KFatTreeNew.hosts.replica[8].eth[0].encap encapPk:vector(packetBytes) ETV
attr interpolationmode none
attr source encapPk
attr title "packets encapsulated, vector(packetBytes)"
vector 91 KFatTreeNew.hosts.replica[9].eth[0].encap encapPk:vector(packetBytes) ETV
attr interpolationmode none
attr source encapPk
attr title "packets encapsulated, vector(packetBytes)"
vector 92 KFatTreeNew.hosts.replica[10].eth[0].encap encapPk:vector(packetBytes) ETV
attr interpolationmode none
attr source encapPk
attr title "packets encapsulated, vector(packetBytes)"
vector 93 KFatTreeNew.hosts.replica[11].eth[0].encap encapPk:vector(packetBytes) ETV
attr interpolationmode none
attr source encapPk
attr title "packets encapsulated, vector(packetBytes)"
vector 94 KFatTreeNew.hosts.replica[12].eth[0].encap encapPk:vector(packetBytes) ETV
attr interpolationmode none
attr source encapPk
attr title "packets encapsulated, vector(packetBytes)"
vector 95 KFatTreeNew.hosts.replica[13].eth[0].encap encapPk:vector(packetBytes) ETV
attr interpolationmode none
attr source encapPk
attr title "packets encapsulated, vector(packetBytes)"
vector 96 KFatTreeNew.hosts.client[0].udp packetSent:vector(packetBytes) ETV
attr interpolationmode none
attr source packetSent
attr title "packets sent, vector(packetBytes)"
vector 97 KFatTreeNew.coreSwitch[0].eth[0].mac packetReceivedFromUpper:vector(packetBytes) ETV
attr interpolationmode none
attr source packetReceivedFromUpper
attr title "packet bytes from higher layer, vector(packetBytes)"
vector 98 KFatTreeNew.coreSwitch[0].eth[0].mac.queue packetPushed:vector(packetBytes) ETV
attr interpolationmode none
attr title "packet pushed, vector(packetBytes)"
vector 99 KFatTreeNew.coreSwitch[0].eth[0].mac.queue queueLength:vector ETV
attr interpolationmode sample-hold
attr source "count(packetPushed) - count(packetPopped) - count(packetRemoved) - count(packetDropped)"
attr title "queue length, vector"
vector 100 KFatTreeNew.coreSwitch[0].eth[0].mac.queue packetPopped:vector(packetBytes) ETV
attr interpolationmode none
attr title "packet popped, vector(packetBytes)"
vector 101 KFatTreeNew.coreSwitch[0].eth[0].mac.queue queueingTime:vector ETV
attr interpolationmode none
attr source queueingTime(packetPopped)
attr title "queueing times, vector"
attr unit s
vector 102 KFatTreeNew.coreSwitch[0].eth[1].mac packetReceivedFromUpper:vector(packetBytes) ETV
attr interpolationmode none
attr source packetReceivedFromUpper
attr title "packet bytes from higher layer, vector(packetBytes)"
vector 103 KFatTreeNew.coreSwitch[0].eth[1].mac.queue packetPushed:vector(packetBytes) ETV
attr interpolationmode none
attr title "packet pushed, vector(packetBytes)"
vector 104 KFatTreeNew.coreSwitch[0].eth[1].mac.queue queueLength:vector ETV
attr interpolationmode sample-hold
attr source "count(packetPushed) - count(packetPopped) - count(packetRemoved) - count(packetDropped)"
attr title "queue length, vector"
vector 105 KFatTreeNew.coreSwitch[0].eth[1].mac.queue packetPopped:vector(packetBytes) ETV
attr interpolationmode none
attr title "packet popped, vector(packetBytes)"
vector 106 KFatTreeNew.coreSwitch[0].eth[1].mac.queue queueingTime:vector ETV
attr interpolationmode none
attr source queueingTime(packetPopped)
attr title "queueing times, vector"
attr unit s
vector 107 KFatTreeNew.coreSwitch[0].eth[2].mac packetReceivedFromUpper:vector(packetBytes) ETV
attr interpolationmode none
attr source packetReceivedFromUpper
attr title "packet bytes from higher layer, vector(packetBytes)"
vector 108 KFatTreeNew.coreSwitch[0].eth[2].mac.queue packetPushed:vector(packetBytes) ETV
attr interpolationmode none
attr title "packet pushed, vector(packetBytes)"
vector 109 KFatTreeNew.coreSwitch[0].eth[2].mac.queue queueLength:vector ETV
attr interpolationmode sample-hold
attr source "count(packetPushed) - count(packetPopped) - count(packetRemoved) - count(packetDropped)"
attr title "queue length, vector"
vector 110 KFatTreeNew.coreSwitch[0].eth[2].mac.queue packetPopped:vector(packetBytes) ETV
attr interpolationmode none
attr title "packet popped, vector(packetBytes)"
vector 111 KFatTreeNew.coreSwitch[0].eth[2].mac.queue queueingTime:vector ETV
attr interpolationmode none
attr source queueingTime(packetPopped)
attr title "queueing times, vector"
attr unit s
vector 112 KFatTreeNew.coreSwitch[0].eth[3].mac packetReceivedFromUpper:vector(packetBytes) ETV
attr interpolationmode none
attr source packetReceivedFromUpper
attr title "packet bytes from higher layer, vector(packetBytes)"
vector 113 KFatTreeNew.coreSwitch[0].eth[3].mac.queue packetPushed:vector(packetBytes) ETV
attr interpolationmode none
attr title "packet pushed, vector(packetBytes)"
vector 114 KFatTreeNew.coreSwitch[0].eth[3].mac.queue queueLength:vector ETV
attr interpolationmode sample-hold
attr source "count(packetPushed) - count(packetPopped) - count(packetRemoved) - count(packetDropped)"
attr title "queue length, vector"
vector 115 KFatTreeNew.coreSwitch[0].eth[3].mac.queue packetPopped:vector(packetBytes) ETV
attr interpolationmode none
attr title "packet popped, vector(packetBytes)"
vector 116 KFatTreeNew.coreSwitch[0].eth[3].mac.queue queueingTime:vector ETV
attr interpolationmode none
attr source queueingTime(packetPopped)
attr title "queueing times, vector"
attr unit s
vector 117 KFatTreeNew.coreSwitch[1].eth[0].mac packetReceivedFromUpper:vector(packetBytes) ETV
attr interpolationmode none
attr source packetReceivedFromUpper
attr title "packet bytes from higher layer, vector(packetBytes)"
vector 118 KFatTreeNew.coreSwitch[1].eth[0].mac.queue packetPushed:vector(packetBytes) ETV
attr interpolationmode none
attr title "packet pushed, vector(packetBytes)"
vector 119 KFatTreeNew.coreSwitch[1].eth[0].mac.queue queueLength:vector ETV
attr interpolationmode sample-hold
attr source "count(packetPushed) - count(packetPopped) - count(packetRemoved) - count(packetDropped)"
attr title "queue length, vector"
vector 120 KFatTreeNew.coreSwitch[1].eth[0].mac.queue packetPopped:vector(packetBytes) ETV
attr interpolationmode none
attr title "packet popped, vector(packetBytes)"
vector 121 KFatTreeNew.coreSwitch[1].eth[0].mac.queue queueingTime:vector ETV
attr interpolationmode none
attr source queueingTime(packetPopped)
attr title "queueing times, vector"
attr unit s
vector 122 KFatTreeNew.coreSwitch[1].eth[1].mac packetReceivedFromUpper:vector(packetBytes) ETV
attr interpolationmode none
attr source packetReceivedFromUpper
attr title "packet bytes from higher layer, vector(packetBytes)"
vector 123 KFatTreeNew.coreSwitch[1].eth[1].mac.queue packetPushed:vector(packetBytes) ETV
attr interpolationmode none
attr title "packet pushed, vector(packetBytes)"
vector 124 KFatTreeNew.coreSwitch[1].eth[1].mac.queue queueLength:vector ETV
attr interpolationmode sample-hold
attr source "count(packetPushed) - count(packetPopped) - count(packetRemoved) - count(packetDropped)"
attr title "queue length, vector"
vector 125 KFatTreeNew.coreSwitch[1].eth[1].mac.queue packetPopped:vector(packetBytes) ETV
attr interpolationmode none
attr title "packet popped, vector(packetBytes)"
vector 126 KFatTreeNew.coreSwitch[1].eth[1].mac.queue queueingTime:vector ETV
attr interpolationmode none
attr source queueingTime(packetPopped)
attr title "queueing times, vector"
attr unit s
vector 127 KFatTreeNew.coreSwitch[1].eth[2].mac packetReceivedFromUpper:vector(packetBytes) ETV
attr interpolationmode none
attr source packetReceivedFromUpper
attr title "packet bytes from higher layer, vector(packetBytes)"
vector 128 KFatTreeNew.coreSwitch[1].eth[2].mac.queue packetPushed:vector(packetBytes) ETV
attr interpolationmode none
attr title "packet pushed, vector(packetBytes)"
vector 129 KFatTreeNew.coreSwitch[1].eth[2].mac.queue queueLength:vector ETV
attr interpolationmode sample-hold
attr source "count(packetPushed) - count(packetPopped) - count(packetRemoved) - count(packetDropped)"
attr title "queue length, vector"
vector 130 KFatTreeNew.coreSwitch[1].eth[2].mac.queue packetPopped:vector(packetBytes) ETV
attr interpolationmode none
attr title "packet popped, vector(packetBytes)"
vector 131 KFatTreeNew.coreSwitch[1].eth[2].mac.queue queueingTime:vector ETV
attr interpolationmode none
attr source queueingTime(packetPopped)
attr title "queueing times, vector"
attr unit s
vector 132 KFatTreeNew.coreSwitch[1].eth[3].mac packetReceivedFromUpper:vector(packetBytes) ETV
attr interpolationmode none
attr source packetReceivedFromUpper
attr title "packet bytes from higher layer, vector(packetBytes)"
vector 133 KFatTreeNew.coreSwitch[1].eth[3].mac.queue packetPushed:vector(packetBytes) ETV
attr interpolationmode none
attr title "packet pushed, vector(packetBytes)"
vector 134 KFatTreeNew.coreSwitch[1].eth[3].mac.queue queueLength:vector ETV
attr interpolationmode sample-hold
attr source "count(packetPushed) - count(packetPopped) - count(packetRemoved) - count(packetDropped)"
attr title "queue length, vector"
vector 135 KFatTreeNew.coreSwitch[1].eth[3].mac.queue packetPopped:vector(packetBytes) ETV
attr interpolationmode none
attr title "packet popped, vector(packetBytes)"
vector 136 KFatTreeNew.coreSwitch[1].eth[3].mac.queue queueingTime:vector ETV
attr interpolationmode none
attr source queueingTime(packetPopped)
attr title "queueing times, vector"
attr unit s
vector 137 KFatTreeNew.coreSwitch[2].eth[0].mac packetReceivedFromUpper:vector(packetBytes) ETV
attr interpolationmode none
attr source packetReceivedFromUpper
attr title "packet bytes from higher layer, vector(packetBytes)"
vector 138 KFatTreeNew.coreSwitch[2].eth[0].mac.queue packetPushed:vector(packetBytes) ETV
attr interpolationmode none
attr title "packet pushed, vector(packetBytes)"
vector 139 KFatTreeNew.coreSwitch[2].eth[0].mac.queue queueLength:vector ETV
attr interpolationmode sample-hold
attr source "count(packetPushed) - count(packetPopped) - count(packetRemoved) - count(packetDropped)"
attr title "queue length, vector"
vector 140 KFatTreeNew.coreSwitch[2].eth[0].mac.queue packetPopped:vector(packetBytes) ETV
attr interpolationmode none
attr title "packet popped, vector(packetBytes)"
vector 141 KFatTreeNew.coreSwitch[2].eth[0].mac.queue queueingTime:vector ETV
attr interpolationmode none
attr source queueingTime(packetPopped)
attr title "queueing times, vector"
attr unit s
vector 142 KFatTreeNew.coreSwitch[2].eth[1].mac packetReceivedFromUpper:vector(packetBytes) ETV
attr interpolationmode none
attr source packetReceivedFromUpper
attr title "packet bytes from higher layer, vector(packetBytes)"
vector 143 KFatTreeNew.coreSwitch[2].eth[1].mac.queue packetPushed:vector(packetBytes) ETV
attr interpolationmode none
attr title "packet pushed, vector(packetBytes)"
vector 144 KFatTreeNew.coreSwitch[2].eth[1].mac.queue queueLength:vector ETV
attr interpolationmode sample-hold
attr source "count(packetPushed) - count(packetPopped) - count(packetRemoved) - count(packetDropped)"
attr title "queue length, vector"
vector 145 KFatTreeNew.coreSwitch[2].eth[1].mac.queue packetPopped:vector(packetBytes) ETV
attr interpolationmode none
attr title "packet popped, vector(packetBytes)"
vector 146 KFatTreeNew.coreSwitch[2].eth[1].mac.queue queueingTime:vector ETV
attr interpolationmode none
attr source queueingTime(packetPopped)
attr title "queueing times, vector"
attr unit s
vector 147 KFatTreeNew.coreSwitch[2].eth[2].mac packetReceivedFromUpper:vector(packetBytes) ETV
attr interpolationmode none
attr source packetReceivedFromUpper
attr title "packet bytes from higher layer, vector(packetBytes)"
vector 148 KFatTreeNew.coreSwitch[2].eth[2].mac.queue packetPushed:vector(packetBytes) ETV
attr interpolationmode none
attr title "packet pushed, vector(packetBytes)"
vector 149 KFatTreeNew.coreSwitch[2].eth[2].mac.queue queueLength:vector ETV
attr interpolationmode sample-hold
attr source "count(packetPushed) - count(packetPopped) - count(packetRemoved) - count(packetDropped)"
attr title "queue length, vector"
vector 150 KFatTreeNew.coreSwitch[2].eth[2].mac.queue packetPopped:vector(packetBytes) ETV
attr interpolationmode none
attr title "packet popped, vector(packetBytes)"
vector 151 KFatTreeNew.coreSwitch[2].eth[2].mac.queue queueingTime:vector ETV
attr interpolationmode none
attr source queueingTime(packetPopped)
attr title "queueing times, vector"
attr unit s
vector 152 KFatTreeNew.coreSwitch[2].eth[3].mac packetReceivedFromUpper:vector(packetBytes) ETV
attr interpolationmode none
attr source packetReceivedFromUpper
attr title "packet bytes from higher layer, vector(packetBytes)"
vector 153 KFatTreeNew.coreSwitch[2].eth[3].mac.queue packetPushed:vector(packetBytes) ETV
attr interpolationmode none
attr title "packet pushed, vector(packetBytes)"
vector 154 KFatTreeNew.coreSwitch[2].eth[3].mac.queue queueLength:vector ETV
attr interpolationmode sample-hold
attr source "count(packetPushed) - count(packetPopped) - count(packetRemoved) - count(packetDropped)"
attr title "queue length, vector"
vector 155 KFatTreeNew.coreSwitch[2].eth[3].mac.queue packetPopped:vector(packetBytes) ETV
attr interpolationmode none
attr title "packet popped, vector(packetBytes)"
vector 156 KFatTreeNew.coreSwitch[2].eth[3].mac.queue queueingTime:vector ETV
attr interpolationmode none
attr source queueingTime(packetPopped)
attr title "queueing times, vector"
attr unit s
vector 157 KFatTreeNew.coreSwitch[3].eth[0].mac packetReceivedFromUpper:vector(packetBytes) ETV
attr interpolationmode none
attr source packetReceivedFromUpper
attr title "packet bytes from higher layer, vector(packetBytes)"
vector 158 KFatTreeNew.coreSwitch[3].eth[0].mac.queue packetPushed:vector(packetBytes) ETV
attr interpolationmode none
attr title "packet pushed, vector(packetBytes)"
vector 159 KFatTreeNew.coreSwitch[3].eth[0].mac.queue queueLength:vector ETV
attr interpolationmode sample-hold
attr source "count(packetPushed) - count(packetPopped) - count(packetRemoved) - count(packetDropped)"
attr title "queue length, vector"
vector 160 KFatTreeNew.coreSwitch[3].eth[0].mac.queue packetPopped:vector(packetBytes) ETV
attr interpolationmode none
attr title "packet popped, vector(packetBytes)"
vector 161 KFatTreeNew.coreSwitch[3].eth[0].mac.queue queueingTime:vector ETV
attr interpolationmode none
attr source queueingTime(packetPopped)
attr title "queueing times, vector"
attr unit s
vector 162 KFatTreeNew.coreSwitch[3].eth[1].mac packetReceivedFromUpper:vector(packetBytes) ETV
attr interpolationmode none
attr source packetReceivedFromUpper
attr title "packet bytes from higher layer, vector(packetBytes)"
vector 163 KFatTreeNew.coreSwitch[3].eth[1].mac.queue packetPushed:vector(packetBytes) ETV
attr interpolationmode none
attr title "packet pushed, vector(packetBytes)"
vector 164 KFatTreeNew.coreSwitch[3].eth[1].mac.queue queueLength:vector ETV
attr interpolationmode sample-hold
attr source "count(packetPushed) - count(packetPopped) - count(packetRemoved) - count(packetDropped)"
attr title "queue length, vector"
vector 165 KFatTreeNew.coreSwitch[3].eth[1].mac.queue packetPopped:vector(packetBytes) ETV
attr interpolationmode none
attr title "packet popped, vector(packetBytes)"
vector 166 KFatTreeNew.coreSwitch[3].eth[1].mac.queue queueingTime:vector ETV
attr interpolationmode none
attr source queueingTime(packetPopped)
attr title "queueing times, vector"
attr unit s
vector 167 KFatTreeNew.coreSwitch[3].eth[2].mac packetReceivedFromUpper:vector(packetBytes) ETV
attr interpolationmode none
attr source packetReceivedFromUpper
attr title "packet bytes from higher layer, vector(packetBytes)"
vector 168 KFatTreeNew.coreSwitch[3].eth[2].mac.queue packetPushed:vector(packetBytes) ETV
attr interpolationmode none
attr title "packet pushed, vector(packetBytes)"
vector 169 KFatTreeNew.coreSwitch[3].eth[2].mac.queue queueLength:vector ETV
attr interpolationmode sample-hold
attr source "count(packetPushed) - count(packetPopped) - count(packetRemoved) - count(packetDropped)"
attr title "queue length, vector"
vector 170 KFatTreeNew.coreSwitch[3].eth[2].mac.queue packetPopped:vector(packetBytes) ETV
attr interpolationmode none
attr title "packet popped, vector(packetBytes)"
vector 171 KFatTreeNew.coreSwitch[3].eth[2].mac.queue queueingTime:vector ETV
attr interpolationmode none
attr source queueingTime(packetPopped)
attr title "queueing times, vector"
attr unit s
vector 172 KFatTreeNew.coreSwitch[3].eth[3].mac packetReceivedFromUpper:vector(packetBytes) ETV
attr interpolationmode none
attr source packetReceivedFromUpper
attr title "packet bytes from higher layer, vector(packetBytes)"
vector 173 KFatTreeNew.coreSwitch[3].eth[3].mac.queue packetPushed:vector(packetBytes) ETV
attr interpolationmode none
attr title "packet pushed, vector(packetBytes)"
vector 174 KFatTreeNew.coreSwitch[3].eth[3].mac.queue queueLength:vector ETV
attr interpolationmode sample-hold
attr source "count(packetPushed) - count(packetPopped) - count(packetRemoved) - count(packetDropped)"
attr title "queue length, vector"
vector 175 KFatTreeNew.coreSwitch[3].eth[3].mac.queue packetPopped:vector(packetBytes) ETV
attr interpolationmode none
attr title "packet popped, vector(packetBytes)"
vector 176 KFatTreeNew.coreSwitch[3].eth[3].mac.queue queueingTime:vector ETV
attr interpolationmode none
attr source queueingTime(packetPopped)
attr title "queueing times, vector"
attr unit s
vector 177 KFatTreeNew.pod[0].aggregateSwitch[0].eth[0].mac packetReceivedFromUpper:vector(packetBytes) ETV
attr interpolationmode none
attr source packetReceivedFromUpper
attr title "packet bytes from higher layer, vector(packetBytes)"
vector 178 KFatTreeNew.pod[0].aggregateSwitch[0].eth[0].mac.queue packetPushed:vector(packetBytes) ETV
attr interpolationmode none
attr title "packet pushed, vector(packetBytes)"
vector 179 KFatTreeNew.pod[0].aggregateSwitch[0].eth[0].mac.queue queueLength:vector ETV
attr interpolationmode sample-hold
attr source "count(packetPushed) - count(packetPopped) - count(packetRemoved) - count(packetDropped)"
attr title "queue length, vector"
vector 180 KFatTreeNew.pod[0].aggregateSwitch[0].eth[0].mac.queue packetPopped:vector(packetBytes) ETV
attr interpolationmode none
attr title "packet popped, vector(packetBytes)"
vector 181 KFatTreeNew.pod[0].aggregateSwitch[0].eth[0].mac.queue queueingTime:vector ETV
attr interpolationmode none
attr source queueingTime(packetPopped)
attr title "queueing times, vector"
attr unit s
vector 182 KFatTreeNew.pod[0].aggregateSwitch[0].eth[1].mac packetReceivedFromUpper:vector(packetBytes) ETV
attr interpolationmode none
attr source packetReceivedFromUpper
attr title "packet bytes from higher layer, vector(packetBytes)"
vector 183 KFatTreeNew.pod[0].aggregateSwitch[0].eth[1].mac.queue packetPushed:vector(packetBytes) ETV
attr interpolationmode none
attr title "packet pushed, vector(packetBytes)"
vector 184 KFatTreeNew.pod[0].aggregateSwitch[0].eth[1].mac.queue queueLength:vector ETV
attr interpolationmode sample-hold
attr source "count(packetPushed) - count(packetPopped) - count(packetRemoved) - count(packetDropped)"
attr title "queue length, vector"
vector 185 KFatTreeNew.pod[0].aggregateSwitch[0].eth[1].mac.queue packetPopped:vector(packetBytes) ETV
attr interpolationmode none
attr title "packet popped, vector(packetBytes)"
vector 186 KFatTreeNew.pod[0].aggregateSwitch[0].eth[1].mac.queue queueingTime:vector ETV
attr interpolationmode none
attr source queueingTime(packetPopped)
attr title "queueing times, vector"
attr unit s
vector 187 KFatTreeNew.pod[0].aggregateSwitch[0].eth[2].mac packetReceivedFromUpper:vector(packetBytes) ETV
attr interpolationmode none
attr source packetReceivedFromUpper
attr title "packet bytes from higher layer, vector(packetBytes)"
vector 188 KFatTreeNew.pod[0].aggregateSwitch[0].eth[2].mac.queue packetPushed:vector(packetBytes) ETV
attr interpolationmode none
attr title "packet pushed, vector(packetBytes)"
vector 189 KFatTreeNew.pod[0].aggregateSwitch[0].eth[2].mac.queue queueLength:vector ETV
attr interpolationmode sample-hold
attr source "count(packetPushed) - count(packetPopped) - count(packetRemoved) - count(packetDropped)"
attr title "queue length, vector"
vector 190 KFatTreeNew.pod[0].aggregateSwitch[0].eth[2].mac.queue packetPopped:vector(packetBytes) ETV
attr interpolationmode none
attr title "packet popped, vector(packetBytes)"
vector 191 KFatTreeNew.pod[0].aggregateSwitch[0].eth[2].mac.queue queueingTime:vector ETV
attr interpolationmode none
attr source queueingTime(packetPopped)
attr title "queueing times, vector"
attr unit s
vector 192 KFatTreeNew.pod[0].aggregateSwitch[0].eth[3].mac packetReceivedFromUpper:vector(packetBytes) ETV
attr interpolationmode none
attr source packetReceivedFromUpper
attr title "packet bytes from higher layer, vector(packetBytes)"
vector 193 KFatTreeNew.pod[0].aggregateSwitch[0].eth[3].mac.queue packetPushed:vector(packetBytes) ETV
attr interpolationmode none
attr title "packet pushed, vector(packetBytes)"
vector 194 KFatTreeNew.pod[0].aggregateSwitch[0].eth[3].mac.queue queueLength:vector ETV
attr interpolationmode sample-hold
attr source "count(packetPushed) - count(packetPopped) - count(packetRemoved) - count(packetDropped)"
attr title "queue length, vector"
vector 195 KFatTreeNew.pod[0].aggregateSwitch[0].eth[3].mac.queue packetPopped:vector(packetBytes) ETV
attr interpolationmode none
attr title "packet popped, vector(packetBytes)"
vector 196 KFatTreeNew.pod[0].aggregateSwitch[0].eth[3].mac.queue queueingTime:vector ETV
attr interpolationmode none
attr source queueingTime(packetPopped)
attr title "queueing times, vector"
attr unit s
vector 197 KFatTreeNew.pod[0].aggregateSwitch[1].eth[0].mac packetReceivedFromUpper:vector(packetBytes) ETV
attr interpolationmode none
attr source packetReceivedFromUpper
attr title "packet bytes from higher layer, vector(packetBytes)"
vector 198 KFatTreeNew.pod[0].aggregateSwitch[1].eth[0].mac.queue packetPushed:vector(packetBytes) ETV
attr interpolationmode none
attr title "packet pushed, vector(packetBytes)"
vector 199 KFatTreeNew.pod[0].aggregateSwitch[1].eth[0].mac.queue queueLength:vector ETV
attr interpolationmode sample-hold
attr source "count(packetPushed) - count(packetPopped) - count(packetRemoved) - count(packetDropped)"
attr title "queue length, vector"
vector 200 KFatTreeNew.pod[0].aggregateSwitch[1].eth[0].mac.queue packetPopped:vector(packetBytes) ETV
attr interpolationmode none
attr title "packet popped, vector(packetBytes)"
vector 201 KFatTreeNew.pod[0].aggregateSwitch[1].eth[0].mac.queue queueingTime:vector ETV
attr interpolationmode none
attr source queueingTime(packetPopped)
attr title "queueing times, vector"
attr unit s
vector 202 KFatTreeNew.pod[0].aggregateSwitch[1].eth[1].mac packetReceivedFromUpper:vector(packetBytes) ETV
attr interpolationmode none
attr source packetReceivedFromUpper
attr title "packet bytes from higher layer, vector(packetBytes)"
vector 203 KFatTreeNew.pod[0].aggregateSwitch[1].eth[1].mac.queue packetPushed:vector(packetBytes) ETV
attr interpolationmode none
attr title "packet pushed, vector(packetBytes)"
vector 204 KFatTreeNew.pod[0].aggregateSwitch[1].eth[1].mac.queue queueLength:vector ETV
attr interpolationmode sample-hold
attr source "count(packetPushed) - count(packetPopped) - count(packetRemoved) - count(packetDropped)"
attr title "queue length, vector"
vector 205 KFatTreeNew.pod[0].aggregateSwitch[1].eth[1].mac.queue packetPopped:vector(packetBytes) ETV
attr interpolationmode none
attr title "packet popped, vector(packetBytes)"
vector 206 KFatTreeNew.pod[0].aggregateSwitch[1].eth[1].mac.queue queueingTime:vector ETV
attr interpolationmode none
attr source queueingTime(packetPopped)
attr title "queueing times, vector"
attr unit s
vector 207 KFatTreeNew.pod[0].aggregateSwitch[1].eth[2].mac packetReceivedFromUpper:vector(packetBytes) ETV
attr interpolationmode none
attr source packetReceivedFromUpper
attr title "packet bytes from higher layer, vector(packetBytes)"
vector 208 KFatTreeNew.pod[0].aggregateSwitch[1].eth[2].mac.queue packetPushed:vector(packetBytes) ETV
attr interpolationmode none
attr title "packet pushed, vector(packetBytes)"
vector 209 KFatTreeNew.pod[0].aggregateSwitch[1].eth[2].mac.queue queueLength:vector ETV
attr interpolationmode sample-hold
attr source "count(packetPushed) - count(packetPopped) - count(packetRemoved) - count(packetDropped)"
attr title "queue length, vector"
vector 210 KFatTreeNew.pod[0].aggregateSwitch[1].eth[2].mac.queue packetPopped:vector(packetBytes) ETV
attr interpolationmode none
attr title "packet popped, vector(packetBytes)"
vector 211 KFatTreeNew.pod[0].aggregateSwitch[1].eth[2].mac.queue queueingTime:vector ETV
attr interpolationmode none
attr source queueingTime(packetPopped)
attr title "queueing times, vector"
attr unit s
vector 212 KFatTreeNew.pod[0].aggregateSwitch[1].eth[3].mac packetReceivedFromUpper:vector(packetBytes) ETV
attr interpolationmode none
attr source packetReceivedFromUpper
attr title "packet bytes from higher layer, vector(packetBytes)"
vector 213 KFatTreeNew.pod[0].aggregateSwitch[1].eth[3].mac.queue packetPushed:vector(packetBytes) ETV
attr interpolationmode none
attr title "packet pushed, vector(packetBytes)"
vector 214 KFatTreeNew.pod[0].aggregateSwitch[1].eth[3].mac.queue queueLength:vector ETV
attr interpolationmode sample-hold
attr source "count(packetPushed) - count(packetPopped) - count(packetRemoved) - count(packetDropped)"
attr title "queue length, vector"
vector 215 KFatTreeNew.pod[0].aggregateSwitch[1].eth[3].mac.queue packetPopped:vector(packetBytes) ETV
attr interpolationmode none
attr title "packet popped, vector(packetBytes)"
vector 216 KFatTreeNew.pod[0].aggregateSwitch[1].eth[3].mac.queue queueingTime:vector ETV
attr interpolationmode none
attr source queueingTime(packetPopped)
attr title "queueing times, vector"
attr unit s
vector 217 KFatTreeNew.pod[0].edgeSwitch[0].eth[0].mac packetReceivedFromUpper:vector(packetBytes) ETV
attr interpolationmode none
attr source packetReceivedFromUpper
attr title "packet bytes from higher layer, vector(packetBytes)"
vector 218 KFatTreeNew.pod[0].edgeSwitch[0].eth[0].mac.queue packetPushed:vector(packetBytes) ETV
attr interpolationmode none
attr title "packet pushed, vector(packetBytes)"
vector 219 KFatTreeNew.pod[0].edgeSwitch[0].eth[0].mac.queue queueLength:vector ETV
attr interpolationmode sample-hold
attr source "count(packetPushed) - count(packetPopped) - count(packetRemoved) - count(packetDropped)"
attr title "queue length, vector"
vector 220 KFatTreeNew.pod[0].edgeSwitch[0].eth[0].mac.queue packetPopped:vector(packetBytes) ETV
attr interpolationmode none
attr title "packet popped, vector(packetBytes)"
vector 221 KFatTreeNew.pod[0].edgeSwitch[0].eth[0].mac.queue queueingTime:vector ETV
attr interpolationmode none
attr source queueingTime(packetPopped)
attr title "queueing times, vector"
attr unit s
vector 222 KFatTreeNew.pod[0].edgeSwitch[0].eth[1].mac packetReceivedFromUpper:vector(packetBytes) ETV
attr interpolationmode none
attr source packetReceivedFromUpper
attr title "packet bytes from higher layer, vector(packetBytes)"
vector 223 KFatTreeNew.pod[0].edgeSwitch[0].eth[1].mac.queue packetPushed:vector(packetBytes) ETV
attr interpolationmode none
attr title "packet pushed, vector(packetBytes)"
vector 224 KFatTreeNew.pod[0].edgeSwitch[0].eth[1].mac.queue queueLength:vector ETV
attr interpolationmode sample-hold
attr source "count(packetPushed) - count(packetPopped) - count(packetRemoved) - count(packetDropped)"
attr title "queue length, vector"
vector 225 KFatTreeNew.pod[0].edgeSwitch[0].eth[1].mac.queue packetPopped:vector(packetBytes) ETV
attr interpolationmode none
attr title "packet popped, vector(packetBytes)"
vector 226 KFatTreeNew.pod[0].edgeSwitch[0].eth[1].mac.queue queueingTime:vector ETV
attr interpolationmode none
attr source queueingTime(packetPopped)
attr title "queueing times, vector"
attr unit s
vector 227 KFatTreeNew.pod[0].edgeSwitch[0].eth[2].mac packetReceivedFromUpper:vector(packetBytes) ETV
attr interpolationmode none
attr source packetReceivedFromUpper
attr title "packet bytes from higher layer, vector(packetBytes)"
vector 228 KFatTreeNew.pod[0].edgeSwitch[0].eth[2].mac.queue packetPushed:vector(packetBytes) ETV
attr interpolationmode none
attr title "packet pushed, vector(packetBytes)"
vector 229 KFatTreeNew.pod[0].edgeSwitch[0].eth[2].mac.queue queueLength:vector ETV
attr interpolationmode sample-hold
attr source "count(packetPushed) - count(packetPopped) - count(packetRemoved) - count(packetDropped)"
attr title "queue length, vector"
vector 230 KFatTreeNew.pod[0].edgeSwitch[0].eth[2].mac.queue packetPopped:vector(packetBytes) ETV
attr interpolationmode none
attr title "packet popped, vector(packetBytes)"
vector 231 KFatTreeNew.pod[0].edgeSwitch[0].eth[2].mac.queue queueingTime:vector ETV
attr interpolationmode none
attr source queueingTime(packetPopped)
attr title "queueing times, vector"
attr unit s
vector 232 KFatTreeNew.pod[0].edgeSwitch[0].eth[3].mac packetReceivedFromUpper:vector(packetBytes) ETV
attr interpolationmode none
attr source packetReceivedFromUpper
attr title "packet bytes from higher layer, vector(packetBytes)"
vector 233 KFatTreeNew.pod[0].edgeSwitch[0].eth[3].mac.queue packetPushed:vector(packetBytes) ETV
attr interpolationmode none
attr title "packet pushed, vector(packetBytes)"
vector 234 KFatTreeNew.pod[0].edgeSwitch[0].eth[3].mac.queue queueLength:vector ETV
attr interpolationmode sample-hold
attr source "count(packetPushed) - count(packetPopped) - count(packetRemoved) - count(packetDropped)"
attr title "queue length, vector"
vector 235 KFatTreeNew.pod[0].edgeSwitch[0].eth[3].mac.queue packetPopped:vector(packetBytes) ETV
attr interpolationmode none
attr title "packet popped, vector(packetBytes)"
vector 236 KFatTreeNew.pod[0].edgeSwitch[0].eth[3].mac.queue queueingTime:vector ETV
attr interpolationmode none
attr source queueingTime(packetPopped)
attr title "queueing times, vector"
attr unit s
vector 237 KFatTreeNew.pod[0].edgeSwitch[1].eth[0].mac packetReceivedFromUpper:vector(packetBytes) ETV
attr interpolationmode none
attr source packetReceivedFromUpper
attr title "packet bytes from higher layer, vector(packetBytes)"
vector 238 KFatTreeNew.pod[0].edgeSwitch[1].eth[0].mac.queue packetPushed:vector(packetBytes) ETV
attr interpolationmode none
attr title "packet pushed, vector(packetBytes)"
vector 239 KFatTreeNew.pod[0].edgeSwitch[1].eth[0].mac.queue queueLength:vector ETV
attr interpolationmode sample-hold
attr source "count(packetPushed) - count(packetPopped) - count(packetRemoved) - count(packetDropped)"
attr title "queue length, vector"
vector 240 KFatTreeNew.pod[0].edgeSwitch[1].eth[0].mac.queue packetPopped:vector(packetBytes) ETV
attr interpolationmode none
attr title "packet popped, vector(packetBytes)"
vector 241 KFatTreeNew.pod[0].edgeSwitch[1].eth[0].mac.queue queueingTime:vector ETV
attr interpolationmode none
attr source queueingTime(packetPopped)
attr title "queueing times, vector"
attr unit s
vector 242 KFatTreeNew.pod[0].edgeSwitch[1].eth[1].mac packetReceivedFromUpper:vector(packetBytes) ETV
attr interpolationmode none
attr source packetReceivedFromUpper
attr title "packet bytes from higher layer, vector(packetBytes)"
vector 243 KFatTreeNew.pod[0].edgeSwitch[1].eth[1].mac.queue packetPushed:vector(packetBytes) ETV
attr interpolationmode none
attr title "packet pushed, vector(packetBytes)"
vector 244 KFatTreeNew.pod[0].edgeSwitch[1].eth[1].mac.queue queueLength:vector ETV
attr interpolationmode sample-hold
attr source "count(packetPushed) - count(packetPopped) - count(packetRemoved) - count(packetDropped)"
attr title "queue length, vector"
vector 245 KFatTreeNew.pod[0].edgeSwitch[1].eth[1].mac.queue packetPopped:vector(packetBytes) ETV
attr interpolationmode none
attr title "packet popped, vector(packetBytes)"
vector 246 KFatTreeNew.pod[0].edgeSwitch[1].eth[1].mac.queue queueingTime:vector ETV
attr interpolationmode none
attr source queueingTime(packetPopped)
attr title "queueing times, vector"
attr unit s
vector 247 KFatTreeNew.pod[0].edgeSwitch[1].eth[2].mac packetReceivedFromUpper:vector(packetBytes) ETV
attr interpolationmode none
attr source packetReceivedFromUpper
attr title "packet bytes from higher layer, vector(packetBytes)"
vector 248 KFatTreeNew.pod[0].edgeSwitch[1].eth[2].mac.queue packetPushed:vector(packetBytes) ETV
attr interpolationmode none
attr title "packet pushed, vector(packetBytes)"
vector 249 KFatTreeNew.pod[0].edgeSwitch[1].eth[2].mac.queue queueLength:vector ETV
attr interpolationmode sample-hold
attr source "count(packetPushed) - count(packetPopped) - count(packetRemoved) - count(packetDropped)"
attr title "queue length, vector"
vector 250 KFatTreeNew.pod[0].edgeSwitch[1].eth[2].mac.queue packetPopped:vector(packetBytes) ETV
attr interpolationmode none
attr title "packet popped, vector(packetBytes)"
vector 251 KFatTreeNew.pod[0].edgeSwitch[1].eth[2].mac.queue queueingTime:vector ETV
attr interpolationmode none
attr source queueingTime(packetPopped)
attr title "queueing times, vector"
attr unit s
vector 252 KFatTreeNew.pod[0].edgeSwitch[1].eth[3].mac packetReceivedFromUpper:vector(packetBytes) ETV
attr interpolationmode none
attr source packetReceivedFromUpper
attr title "packet bytes from higher layer, vector(packetBytes)"
vector 253 KFatTreeNew.pod[0].edgeSwitch[1].eth[3].mac.queue packetPushed:vector(packetBytes) ETV
attr interpolationmode none
attr title "packet pushed, vector(packetBytes)"
vector 254 KFatTreeNew.pod[0].edgeSwitch[1].eth[3].mac.queue queueLength:vector ETV
attr interpolationmode sample-hold
attr source "count(packetPushed) - count(packetPopped) - count(packetRemoved) - count(packetDropped)"
attr title "queue length, vector"
vector 255 KFatTreeNew.pod[0].edgeSwitch[1].eth[3].mac.queue packetPopped:vector(packetBytes) ETV
attr interpolationmode none
attr title "packet popped, vector(packetBytes)"
vector 256 KFatTreeNew.pod[0].edgeSwitch[1].eth[3].mac.queue queueingTime:vector ETV
attr interpolationmode none
attr source queueingTime(packetPopped)
attr title "queueing times, vector"
attr unit s
vector 257 KFatTreeNew.pod[1].aggregateSwitch[0].eth[0].mac packetReceivedFromUpper:vector(packetBytes) ETV
attr interpolationmode none
attr source packetReceivedFromUpper
attr title "packet bytes from higher layer, vector(packetBytes)"
vector 258 KFatTreeNew.pod[1].aggregateSwitch[0].eth[0].mac.queue packetPushed:vector(packetBytes) ETV
attr interpolationmode none
attr title "packet pushed, vector(packetBytes)"
vector 259 KFatTreeNew.pod[1].aggregateSwitch[0].eth[0].mac.queue queueLength:vector ETV
attr interpolationmode sample-hold
attr source "count(packetPushed) - count(packetPopped) - count(packetRemoved) - count(packetDropped)"
attr title "queue length, vector"
vector 260 KFatTreeNew.pod[1].aggregateSwitch[0].eth[0].mac.queue packetPopped:vector(packetBytes) ETV
attr interpolationmode none
attr title "packet popped, vector(packetBytes)"
vector 261 KFatTreeNew.pod[1].aggregateSwitch[0].eth[0].mac.queue queueingTime:vector ETV
attr interpolationmode none
attr source queueingTime(packetPopped)
attr title "queueing times, vector"
attr unit s
vector 262 KFatTreeNew.pod[1].aggregateSwitch[0].eth[1].mac packetReceivedFromUpper:vector(packetBytes) ETV
attr interpolationmode none
attr source packetReceivedFromUpper
attr title "packet bytes from higher layer, vector(packetBytes)"
vector 263 KFatTreeNew.pod[1].aggregateSwitch[0].eth[1].mac.queue packetPushed:vector(packetBytes) ETV
attr interpolationmode none
attr title "packet pushed, vector(packetBytes)"
vector 264 KFatTreeNew.pod[1].aggregateSwitch[0].eth[1].mac.queue queueLength:vector ETV
attr interpolationmode sample-hold
attr source "count(packetPushed) - count(packetPopped) - count(packetRemoved) - count(packetDropped)"
attr title "queue length, vector"
vector 265 KFatTreeNew.pod[1].aggregateSwitch[0].eth[1].mac.queue packetPopped:vector(packetBytes) ETV
attr interpolationmode none
attr title "packet popped, vector(packetBytes)"
vector 266 KFatTreeNew.pod[1].aggregateSwitch[0].eth[1].mac.queue queueingTime:vector ETV
attr interpolationmode none
attr source queueingTime(packetPopped)
attr title "queueing times, vector"
attr unit s
vector 267 KFatTreeNew.pod[1].aggregateSwitch[0].eth[2].mac packetReceivedFromUpper:vector(packetBytes) ETV
attr interpolationmode none
attr source packetReceivedFromUpper
attr title "packet bytes from higher layer, vector(packetBytes)"
vector 268 KFatTreeNew.pod[1].aggregateSwitch[0].eth[2].mac.queue packetPushed:vector(packetBytes) ETV
attr interpolationmode none
attr title "packet pushed, vector(packetBytes)"
vector 269 KFatTreeNew.pod[1].aggregateSwitch[0].eth[2].mac.queue queueLength:vector ETV
attr interpolationmode sample-hold
attr source "count(packetPushed) - count(packetPopped) - count(packetRemoved) - count(packetDropped)"
attr title "queue length, vector"
vector 270 KFatTreeNew.pod[1].aggregateSwitch[0].eth[2].mac.queue packetPopped:vector(packetBytes) ETV
attr interpolationmode none
attr title "packet popped, vector(packetBytes)"
vector 271 KFatTreeNew.pod[1].aggregateSwitch[0].eth[2].mac.queue queueingTime:vector ETV
attr interpolationmode none
attr source queueingTime(packetPopped)
attr title "queueing times, vector"
attr unit s
vector 272 KFatTreeNew.pod[1].aggregateSwitch[0].eth[3].mac packetReceivedFromUpper:vector(packetBytes) ETV
attr interpolationmode none
attr source packetReceivedFromUpper
attr title "packet bytes from higher layer, vector(packetBytes)"
vector 273 KFatTreeNew.pod[1].aggregateSwitch[0].eth[3].mac.queue packetPushed:vector(packetBytes) ETV
attr interpolationmode none
attr title "packet pushed, vector(packetBytes)"
vector 274 KFatTreeNew.pod[1].aggregateSwitch[0].eth[3].mac.queue queueLength:vector ETV
attr interpolationmode sample-hold
attr source "count(packetPushed) - count(packetPopped) - count(packetRemoved) - count(packetDropped)"
attr title "queue length, vector"
vector 275 KFatTreeNew.pod[1].aggregateSwitch[0].eth[3].mac.queue packetPopped:vector(packetBytes) ETV
attr interpolationmode none
attr title "packet popped, vector(packetBytes)"
vector 276 KFatTreeNew.pod[1].aggregateSwitch[0].eth[3].mac.queue queueingTime:vector ETV
attr interpolationmode none
attr source queueingTime(packetPopped)
attr title "queueing times, vector"
attr unit s
vector 277 KFatTreeNew.pod[1].aggregateSwitch[1].eth[0].mac packetReceivedFromUpper:vector(packetBytes) ETV
attr interpolationmode none
attr source packetReceivedFromUpper
attr title "packet bytes from higher layer, vector(packetBytes)"
vector 278 KFatTreeNew.pod[1].aggregateSwitch[1].eth[0].mac.queue packetPushed:vector(packetBytes) ETV
attr interpolationmode none
attr title "packet pushed, vector(packetBytes)"
vector 279 KFatTreeNew.pod[1].aggregateSwitch[1].eth[0].mac.queue queueLength:vector ETV
attr interpolationmode sample-hold
attr source "count(packetPushed) - count(packetPopped) - count(packetRemoved) - count(packetDropped)"
attr title "queue length, vector"
vector 280 KFatTreeNew.pod[1].aggregateSwitch[1].eth[0].mac.queue packetPopped:vector(packetBytes) ETV
attr interpolationmode none
attr title "packet popped, vector(packetBytes)"
vector 281 KFatTreeNew.pod[1].aggregateSwitch[1].eth[0].mac.queue queueingTime:vector ETV
attr interpolationmode none
attr source queueingTime(packetPopped)
attr title "queueing times, vector"
attr unit s
vector 282 KFatTreeNew.pod[1].aggregateSwitch[1].eth[1].mac packetReceivedFromUpper:vector(packetBytes) ETV
attr interpolationmode none
attr source packetReceivedFromUpper
attr title "packet bytes from higher layer, vector(packetBytes)"
vector 283 KFatTreeNew.pod[1].aggregateSwitch[1].eth[1].mac.queue packetPushed:vector(packetBytes) ETV
attr interpolationmode none
attr title "packet pushed, vector(packetBytes)"
vector 284 KFatTreeNew.pod[1].aggregateSwitch[1].eth[1].mac.queue queueLength:vector ETV
attr interpolationmode sample-hold
attr source "count(packetPushed) - count(packetPopped) - count(packetRemoved) - count(packetDropped)"
attr title "queue length, vector"
vector 285 KFatTreeNew.pod[1].aggregateSwitch[1].eth[1].mac.queue packetPopped:vector(packetBytes) ETV
attr interpolationmode none
attr title "packet popped, vector(packetBytes)"
vector 286 KFatTreeNew.pod[1].aggregateSwitch[1].eth[1].mac.queue queueingTime:vector ETV
attr interpolationmode none
attr source queueingTime(packetPopped)
attr title "queueing times, vector"
attr unit s
vector 287 KFatTreeNew.pod[1].aggregateSwitch[1].eth[2].mac packetReceivedFromUpper:vector(packetBytes) ETV
attr interpolationmode none
attr source packetReceivedFromUpper
attr title "packet bytes from higher layer, vector(packetBytes)"
vector 288 KFatTreeNew.pod[1].aggregateSwitch[1].eth[2].mac.queue packetPushed:vector(packetBytes) ETV
attr interpolationmode none
attr title "packet pushed, vector(packetBytes)"
vector 289 KFatTreeNew.pod[1].aggregateSwitch[1].eth[2].mac.queue queueLength:vector ETV
attr interpolationmode sample-hold
attr source "count(packetPushed) - count(packetPopped) - count(packetRemoved) - count(packetDropped)"
attr title "queue length, vector"
vector 290 KFatTreeNew.pod[1].aggregateSwitch[1].eth[2].mac.queue packetPopped:vector(packetBytes) ETV
attr interpolationmode none
attr title "packet popped, vector(packetBytes)"
vector 291 KFatTreeNew.pod[1].aggregateSwitch[1].eth[2].mac.queue queueingTime:vector ETV
attr interpolationmode none
attr source queueingTime(packetPopped)
attr title "queueing times, vector"
attr unit s
vector 292 KFatTreeNew.pod[1].aggregateSwitch[1].eth[3].mac packetReceivedFromUpper:vector(packetBytes) ETV
attr interpolationmode none
attr source packetReceivedFromUpper
attr title "packet bytes from higher layer, vector(packetBytes)"
vector 293 KFatTreeNew.pod[1].aggregateSwitch[1].eth[3].mac.queue packetPushed:vector(packetBytes) ETV
attr interpolationmode none
attr title "packet pushed, vector(packetBytes)"
vector 294 KFatTreeNew.pod[1].aggregateSwitch[1].eth[3].mac.queue queueLength:vector ETV
attr interpolationmode sample-hold
attr source "count(packetPushed) - count(packetPopped) - count(packetRemoved) - count(packetDropped)"
attr title "queue length, vector"
vector 295 KFatTreeNew.pod[1].aggregateSwitch[1].eth[3].mac.queue packetPopped:vector(packetBytes) ETV
attr interpolationmode none
attr title "packet popped, vector(packetBytes)"
vector 296 KFatTreeNew.pod[1].aggregateSwitch[1].eth[3].mac.queue queueingTime:vector ETV
attr interpolationmode none
attr source queueingTime(packetPopped)
attr title "queueing times, vector"
attr unit s
vector 297 KFatTreeNew.pod[1].edgeSwitch[0].eth[0].mac packetReceivedFromUpper:vector(packetBytes) ETV
attr interpolationmode none
attr source packetReceivedFromUpper
attr title "packet bytes from higher layer, vector(packetBytes)"
vector 298 KFatTreeNew.pod[1].edgeSwitch[0].eth[0].mac.queue packetPushed:vector(packetBytes) ETV
attr interpolationmode none
attr title "packet pushed, vector(packetBytes)"
vector 299 KFatTreeNew.pod[1].edgeSwitch[0].eth[0].mac.queue queueLength:vector ETV
attr interpolationmode sample-hold
attr source "count(packetPushed) - count(packetPopped) - count(packetRemoved) - count(packetDropped)"
attr title "queue length, vector"
vector 300 KFatTreeNew.pod[1].edgeSwitch[0].eth[0].mac.queue packetPopped:vector(packetBytes) ETV
attr interpolationmode none
attr title "packet popped, vector(packetBytes)"
vector 301 KFatTreeNew.pod[1].edgeSwitch[0].eth[0].mac.queue queueingTime:vector ETV
attr interpolationmode none
attr source queueingTime(packetPopped)
attr title "queueing times, vector"
attr unit s
vector 302 KFatTreeNew.pod[1].edgeSwitch[0].eth[1].mac packetReceivedFromUpper:vector(packetBytes) ETV
attr interpolationmode none
attr source packetReceivedFromUpper
attr title "packet bytes from higher layer, vector(packetBytes)"
vector 303 KFatTreeNew.pod[1].edgeSwitch[0].eth[1].mac.queue packetPushed:vector(packetBytes) ETV
attr interpolationmode none
attr title "packet pushed, vector(packetBytes)"
vector 304 KFatTreeNew.pod[1].edgeSwitch[0].eth[1].mac.queue queueLength:vector ETV
attr interpolationmode sample-hold
attr source "count(packetPushed) - count(packetPopped) - count(packetRemoved) - count(packetDropped)"
attr title "queue length, vector"
vector 305 KFatTreeNew.pod[1].edgeSwitch[0].eth[1].mac.queue packetPopped:vector(packetBytes) ETV
attr interpolationmode none
attr title "packet popped, vector(packetBytes)"
vector 306 KFatTreeNew.pod[1].edgeSwitch[0].eth[1].mac.queue queueingTime:vector ETV
attr interpolationmode none
attr source queueingTime(packetPopped)
attr title "queueing times, vector"
attr unit s
vector 307 KFatTreeNew.pod[1].edgeSwitch[0].eth[2].mac packetReceivedFromUpper:vector(packetBytes) ETV
attr interpolationmode none
attr source packetReceivedFromUpper
attr title "packet bytes from higher layer, vector(packetBytes)"
vector 308 KFatTreeNew.pod[1].edgeSwitch[0].eth[2].mac.queue packetPushed:vector(packetBytes) ETV
attr interpolationmode none
attr title "packet pushed, vector(packetBytes)"
vector 309 KFatTreeNew.pod[1].edgeSwitch[0].eth[2].mac.queue queueLength:vector ETV
attr interpolationmode sample-hold
attr source "count(packetPushed) - count(packetPopped) - count(packetRemoved) - count(packetDropped)"
attr title "queue length, vector"
vector 310 KFatTreeNew.pod[1].edgeSwitch[0].eth[2].mac.queue packetPopped:vector(packetBytes) ETV
attr interpolationmode none
attr title "packet popped, vector(packetBytes)"
vector 311 KFatTreeNew.pod[1].edgeSwitch[0].eth[2].mac.queue queueingTime:vector ETV
attr interpolationmode none
attr source queueingTime(packetPopped)
attr title "queueing times, vector"
attr unit s
vector 312 KFatTreeNew.pod[1].edgeSwitch[0].eth[3].mac packetReceivedFromUpper:vector(packetBytes) ETV
attr interpolationmode none
attr source packetReceivedFromUpper
attr title "packet bytes from higher layer, vector(packetBytes)"
vector 313 KFatTreeNew.pod[1].edgeSwitch[0].eth[3].mac.queue packetPushed:vector(packetBytes) ETV
attr interpolationmode none
attr title "packet pushed, vector(packetBytes)"
vector 314 KFatTreeNew.pod[1].edgeSwitch[0].eth[3].mac.queue queueLength:vector ETV
attr interpolationmode sample-hold
attr source "count(packetPushed) - count(packetPopped) - count(packetRemoved) - count(packetDropped)"
attr title "queue length, vector"
vector 315 KFatTreeNew.pod[1].edgeSwitch[0].eth[3].mac.queue packetPopped:vector(packetBytes) ETV
attr interpolationmode none
attr title "packet popped, vector(packetBytes)"
vector 316 KFatTreeNew.pod[1].edgeSwitch[0].eth[3].mac.queue queueingTime:vector ETV
attr interpolationmode none
attr source queueingTime(packetPopped)
attr title "queueing times, vector"
attr unit s
vector 317 KFatTreeNew.pod[1].edgeSwitch[1].eth[0].mac packetReceivedFromUpper:vector(packetBytes) ETV
attr interpolationmode none
attr source packetReceivedFromUpper
attr title "packet bytes from higher layer, vector(packetBytes)"
vector 318 KFatTreeNew.pod[1].edgeSwitch[1].eth[0].mac.queue packetPushed:vector(packetBytes) ETV
attr interpolationmode none
attr title "packet pushed, vector(packetBytes)"
vector 319 KFatTreeNew.pod[1].edgeSwitch[1].eth[0].mac.queue queueLength:vector ETV
attr interpolationmode sample-hold
attr source "count(packetPushed) - count(packetPopped) - count(packetRemoved) - count(packetDropped)"
attr title "queue length, vector"
vector 320 KFatTreeNew.pod[1].edgeSwitch[1].eth[0].mac.queue packetPopped:vector(packetBytes) ETV
attr interpolationmode none
attr title "packet popped, vector(packetBytes)"
vector 321 KFatTreeNew.pod[1].edgeSwitch[1].eth[0].mac.queue queueingTime:vector ETV
attr interpolationmode none
attr source queueingTime(packetPopped)
attr title "queueing times, vector"
attr unit s
vector 322 KFatTreeNew.pod[1].edgeSwitch[1].eth[1].mac packetReceivedFromUpper:vector(packetBytes) ETV
attr interpolationmode none
attr source packetReceivedFromUpper
attr title "packet bytes from higher layer, vector(packetBytes)"
vector 323 KFatTreeNew.pod[1].edgeSwitch[1].eth[1].mac.queue packetPushed:vector(packetBytes) ETV
attr interpolationmode none
attr title "packet pushed, vector(packetBytes)"
vector 324 KFatTreeNew.pod[1].edgeSwitch[1].eth[1].mac.queue queueLength:vector ETV
attr interpolationmode sample-hold
attr source "count(packetPushed) - count(packetPopped) - count(packetRemoved) - count(packetDropped)"
attr title "queue length, vector"
vector 325 KFatTreeNew.pod[1].edgeSwitch[1].eth[1].mac.queue packetPopped:vector(packetBytes) ETV
attr interpolationmode none
attr title "packet popped, vector(packetBytes)"
vector 326 KFatTreeNew.pod[1].edgeSwitch[1].eth[1].mac.queue queueingTime:vector ETV
attr interpolationmode none
attr source queueingTime(packetPopped)
attr title "queueing times, vector"
attr unit s
vector 327 KFatTreeNew.pod[1].edgeSwitch[1].eth[2].mac packetReceivedFromUpper:vector(packetBytes) ETV
attr interpolationmode none
attr source packetReceivedFromUpper
attr title "packet bytes from higher layer, vector(packetBytes)"
vector 328 KFatTreeNew.pod[1].edgeSwitch[1].eth[2].mac.queue packetPushed:vector(packetBytes) ETV
attr interpolationmode none
attr title "packet pushed, vector(packetBytes)"
vector 329 KFatTreeNew.pod[1].edgeSwitch[1].eth[2].mac.queue queueLength:vector ETV
attr interpolationmode sample-hold
attr source "count(packetPushed) - count(packetPopped) - count(packetRemoved) - count(packetDropped)"
attr title "queue length, vector"
vector 330 KFatTreeNew.pod[1].edgeSwitch[1].eth[2].mac.queue packetPopped:vector(packetBytes) ETV
attr interpolationmode none
attr title "packet popped, vector(packetBytes)"
vector 331 KFatTreeNew.pod[1].edgeSwitch[1].eth[2].mac.queue queueingTime:vector ETV
attr interpolationmode none
attr source queueingTime(packetPopped)
attr title "queueing times, vector"
attr unit s
vector 332 KFatTreeNew.pod[1].edgeSwitch[1].eth[3].mac packetReceivedFromUpper:vector(packetBytes) ETV
attr interpolationmode none
attr source packetReceivedFromUpper
attr title "packet bytes from higher layer, vector(packetBytes)"
vector 333 KFatTreeNew.pod[1].edgeSwitch[1].eth[3].mac.queue packetPushed:vector(packetBytes) ETV
attr interpolationmode none
attr title "packet pushed, vector(packetBytes)"
vector 334 KFatTreeNew.pod[1].edgeSwitch[1].eth[3].mac.queue queueLength:vector ETV
attr interpolationmode sample-hold
attr source "count(packetPushed) - count(packetPopped) - count(packetRemoved) - count(packetDropped)"
attr title "queue length, vector"
vector 335 KFatTreeNew.pod[1].edgeSwitch[1].eth[3].mac.queue packetPopped:vector(packetBytes) ETV
attr interpolationmode none
attr title "packet popped, vector(packetBytes)"
vector 336 KFatTreeNew.pod[1].edgeSwitch[1].eth[3].mac.queue queueingTime:vector ETV
attr interpolationmode none
attr source queueingTime(packetPopped)
attr title "queueing times, vector"
attr unit s
vector 337 KFatTreeNew.pod[2].aggregateSwitch[0].eth[0].mac packetReceivedFromUpper:vector(packetBytes) ETV
attr interpolationmode none
attr source packetReceivedFromUpper
attr title "packet bytes from higher layer, vector(packetBytes)"
vector 338 KFatTreeNew.pod[2].aggregateSwitch[0].eth[0].mac.queue packetPushed:vector(packetBytes) ETV
attr interpolationmode none
attr title "packet pushed, vector(packetBytes)"
vector 339 KFatTreeNew.pod[2].aggregateSwitch[0].eth[0].mac.queue queueLength:vector ETV
attr interpolationmode sample-hold
attr source "count(packetPushed) - count(packetPopped) - count(packetRemoved) - count(packetDropped)"
attr title "queue length, vector"
vector 340 KFatTreeNew.pod[2].aggregateSwitch[0].eth[0].mac.queue packetPopped:vector(packetBytes) ETV
attr interpolationmode none
attr title "packet popped, vector(packetBytes)"
vector 341 KFatTreeNew.pod[2].aggregateSwitch[0].eth[0].mac.queue queueingTime:vector ETV
attr interpolationmode none
attr source queueingTime(packetPopped)
attr title "queueing times, vector"
attr unit s
vector 342 KFatTreeNew.pod[2].aggregateSwitch[0].eth[1].mac packetReceivedFromUpper:vector(packetBytes) ETV
attr interpolationmode none
attr source packetReceivedFromUpper
attr title "packet bytes from higher layer, vector(packetBytes)"
vector 343 KFatTreeNew.pod[2].aggregateSwitch[0].eth[1].mac.queue packetPushed:vector(packetBytes) ETV
attr interpolationmode none
attr title "packet pushed, vector(packetBytes)"
vector 344 KFatTreeNew.pod[2].aggregateSwitch[0].eth[1].mac.queue queueLength:vector ETV
attr interpolationmode sample-hold
attr source "count(packetPushed) - count(packetPopped) - count(packetRemoved) - count(packetDropped)"
attr title "queue length, vector"
vector 345 KFatTreeNew.pod[2].aggregateSwitch[0].eth[1].mac.queue packetPopped:vector(packetBytes) ETV
attr interpolationmode none
attr title "packet popped, vector(packetBytes)"
vector 346 KFatTreeNew.pod[2].aggregateSwitch[0].eth[1].mac.queue queueingTime:vector ETV
attr interpolationmode none
attr source queueingTime(packetPopped)
attr title "queueing times, vector"
attr unit s
vector 347 KFatTreeNew.pod[2].aggregateSwitch[0].eth[2].mac packetReceivedFromUpper:vector(packetBytes) ETV
attr interpolationmode none
attr source packetReceivedFromUpper
attr title "packet bytes from higher layer, vector(packetBytes)"
vector 348 KFatTreeNew.pod[2].aggregateSwitch[0].eth[2].mac.queue packetPushed:vector(packetBytes) ETV
attr interpolationmode none
attr title "packet pushed, vector(packetBytes)"
vector 349 KFatTreeNew.pod[2].aggregateSwitch[0].eth[2].mac.queue queueLength:vector ETV
attr interpolationmode sample-hold
attr source "count(packetPushed) - count(packetPopped) - count(packetRemoved) - count(packetDropped)"
attr title "queue length, vector"
vector 350 KFatTreeNew.pod[2].aggregateSwitch[0].eth[2].mac.queue packetPopped:vector(packetBytes) ETV
attr interpolationmode none
attr title "packet popped, vector(packetBytes)"
vector 351 KFatTreeNew.pod[2].aggregateSwitch[0].eth[2].mac.queue queueingTime:vector ETV
attr interpolationmode none
attr source queueingTime(packetPopped)
attr title "queueing times, vector"
attr unit s
vector 352 KFatTreeNew.pod[2].aggregateSwitch[0].eth[3].mac packetReceivedFromUpper:vector(packetBytes) ETV
attr interpolationmode none
attr source packetReceivedFromUpper
attr title "packet bytes from higher layer, vector(packetBytes)"
vector 353 KFatTreeNew.pod[2].aggregateSwitch[0].eth[3].mac.queue packetPushed:vector(packetBytes) ETV
attr interpolationmode none
attr title "packet pushed, vector(packetBytes)"
vector 354 KFatTreeNew.pod[2].aggregateSwitch[0].eth[3].mac.queue queueLength:vector ETV
attr interpolationmode sample-hold
attr source "count(packetPushed) - count(packetPopped) - count(packetRemoved) - count(packetDropped)"
attr title "queue length, vector"
vector 355 KFatTreeNew.pod[2].aggregateSwitch[0].eth[3].mac.queue packetPopped:vector(packetBytes) ETV
attr interpolationmode none
attr title "packet popped, vector(packetBytes)"
vector 356 KFatTreeNew.pod[2].aggregateSwitch[0].eth[3].mac.queue queueingTime:vector ETV
attr interpolationmode none
attr source queueingTime(packetPopped)
attr title "queueing times, vector"
attr unit s
vector 357 KFatTreeNew.pod[2].aggregateSwitch[1].eth[0].mac packetReceivedFromUpper:vector(packetBytes) ETV
attr interpolationmode none
attr source packetReceivedFromUpper
attr title "packet bytes from higher layer, vector(packetBytes)"
vector 358 KFatTreeNew.pod[2].aggregateSwitch[1].eth[0].mac.queue packetPushed:vector(packetBytes) ETV
attr interpolationmode none
attr title "packet pushed, vector(packetBytes)"
vector 359 KFatTreeNew.pod[2].aggregateSwitch[1].eth[0].mac.queue queueLength:vector ETV
attr interpolationmode sample-hold
attr source "count(packetPushed) - count(packetPopped) - count(packetRemoved) - count(packetDropped)"
attr title "queue length, vector"
vector 360 KFatTreeNew.pod[2].aggregateSwitch[1].eth[0].mac.queue packetPopped:vector(packetBytes) ETV
attr interpolationmode none
attr title "packet popped, vector(packetBytes)"
vector 361 KFatTreeNew.pod[2].aggregateSwitch[1].eth[0].mac.queue queueingTime:vector ETV
attr interpolationmode none
attr source queueingTime(packetPopped)
attr title "queueing times, vector"
attr unit s
vector 362 KFatTreeNew.pod[2].aggregateSwitch[1].eth[1].mac packetReceivedFromUpper:vector(packetBytes) ETV
attr interpolationmode none
attr source packetReceivedFromUpper
attr title "packet bytes from higher layer, vector(packetBytes)"
vector 363 KFatTreeNew.pod[2].aggregateSwitch[1].eth[1].mac.queue packetPushed:vector(packetBytes) ETV
attr interpolationmode none
attr title "packet pushed, vector(packetBytes)"
vector 364 KFatTreeNew.pod[2].aggregateSwitch[1].eth[1].mac.queue queueLength:vector ETV
attr interpolationmode sample-hold
attr source "count(packetPushed) - count(packetPopped) - count(packetRemoved) - count(packetDropped)"
attr title "queue length, vector"
vector 365 KFatTreeNew.pod[2].aggregateSwitch[1].eth[1].mac.queue packetPopped:vector(packetBytes) ETV
attr interpolationmode none
attr title "packet popped, vector(packetBytes)"
vector 366 KFatTreeNew.pod[2].aggregateSwitch[1].eth[1].mac.queue queueingTime:vector ETV
attr interpolationmode none
attr source queueingTime(packetPopped)
attr title "queueing times, vector"
attr unit s
vector 367 KFatTreeNew.pod[2].aggregateSwitch[1].eth[2].mac packetReceivedFromUpper:vector(packetBytes) ETV
attr interpolationmode none
attr source packetReceivedFromUpper
attr title "packet bytes from higher layer, vector(packetBytes)"
vector 368 KFatTreeNew.pod[2].aggregateSwitch[1].eth[2].mac.queue packetPushed:vector(packetBytes) ETV
attr interpolationmode none
attr title "packet pushed, vector(packetBytes)"
vector 369 KFatTreeNew.pod[2].aggregateSwitch[1].eth[2].mac.queue queueLength:vector ETV
attr interpolationmode sample-hold
attr source "count(packetPushed) - count(packetPopped) - count(packetRemoved) - count(packetDropped)"
attr title "queue length, vector"
vector 370 KFatTreeNew.pod[2].aggregateSwitch[1].eth[2].mac.queue packetPopped:vector(packetBytes) ETV
attr interpolationmode none
attr title "packet popped, vector(packetBytes)"
vector 371 KFatTreeNew.pod[2].aggregateSwitch[1].eth[2].mac.queue queueingTime:vector ETV
attr interpolationmode none
attr source queueingTime(packetPopped)
attr title "queueing times, vector"
attr unit s
vector 372 KFatTreeNew.pod[2].aggregateSwitch[1].eth[3].mac packetReceivedFromUpper:vector(packetBytes) ETV
attr interpolationmode none
attr source packetReceivedFromUpper
attr title "packet bytes from higher layer, vector(packetBytes)"
vector 373 KFatTreeNew.pod[2].aggregateSwitch[1].eth[3].mac.queue packetPushed:vector(packetBytes) ETV
attr interpolationmode none
attr title "packet pushed, vector(packetBytes)"
vector 374 KFatTreeNew.pod[2].aggregateSwitch[1].eth[3].mac.queue queueLength:vector ETV
attr interpolationmode sample-hold
attr source "count(packetPushed) - count(packetPopped) - count(packetRemoved) - count(packetDropped)"
attr title "queue length, vector"
vector 375 KFatTreeNew.pod[2].aggregateSwitch[1].eth[3].mac.queue packetPopped:vector(packetBytes) ETV
attr interpolationmode none
attr title "packet popped, vector(packetBytes)"
vector 376 KFatTreeNew.pod[2].aggregateSwitch[1].eth[3].mac.queue queueingTime:vector ETV
attr interpolationmode none
attr source queueingTime(packetPopped)
attr title "queueing times, vector"
attr unit s
vector 377 KFatTreeNew.pod[2].edgeSwitch[0].eth[0].mac packetReceivedFromUpper:vector(packetBytes) ETV
attr interpolationmode none
attr source packetReceivedFromUpper
attr title "packet bytes from higher layer, vector(packetBytes)"
vector 378 KFatTreeNew.pod[2].edgeSwitch[0].eth[0].mac.queue packetPushed:vector(packetBytes) ETV
attr interpolationmode none
attr title "packet pushed, vector(packetBytes)"
vector 379 KFatTreeNew.pod[2].edgeSwitch[0].eth[0].mac.queue queueLength:vector ETV
attr interpolationmode sample-hold
attr source "count(packetPushed) - count(packetPopped) - count(packetRemoved) - count(packetDropped)"
attr title "queue length, vector"
vector 380 KFatTreeNew.pod[2].edgeSwitch[0].eth[0].mac.queue packetPopped:vector(packetBytes) ETV
attr interpolationmode none
attr title "packet popped, vector(packetBytes)"
vector 381 KFatTreeNew.pod[2].edgeSwitch[0].eth[0].mac.queue queueingTime:vector ETV
attr interpolationmode none
attr source queueingTime(packetPopped)
attr title "queueing times, vector"
attr unit s
vector 382 KFatTreeNew.pod[2].edgeSwitch[0].eth[1].mac packetReceivedFromUpper:vector(packetBytes) ETV
attr interpolationmode none
attr source packetReceivedFromUpper
attr title "packet bytes from higher layer, vector(packetBytes)"
vector 383 KFatTreeNew.pod[2].edgeSwitch[0].eth[1].mac.queue packetPushed:vector(packetBytes) ETV
attr interpolationmode none
attr title "packet pushed, vector(packetBytes)"
vector 384 KFatTreeNew.pod[2].edgeSwitch[0].eth[1].mac.queue queueLength:vector ETV
attr interpolationmode sample-hold
attr source "count(packetPushed) - count(packetPopped) - count(packetRemoved) - count(packetDropped)"
attr title "queue length, vector"
vector 385 KFatTreeNew.pod[2].edgeSwitch[0].eth[1].mac.queue packetPopped:vector(packetBytes) ETV
attr interpolationmode none
attr title "packet popped, vector(packetBytes)"
vector 386 KFatTreeNew.pod[2].edgeSwitch[0].eth[1].mac.queue queueingTime:vector ETV
attr interpolationmode none
attr source queueingTime(packetPopped)
attr title "queueing times, vector"
attr unit s
[...]
228	228408 136 966 1253 0.00000128384 0.00000443072 5 64 1296 5248 6722560
229	228544 246 966 1253 0.00000128384 0.00000443072 10 0 1 5 5
230	228790 136 966 1253 0.00000128384 0.00000443072 5 64 1296 5248 6722560
231	228926 123 966 1253 0.00000128384 0.00000443072 5 0 0 0 0
257	229049 26 1015 1015 0.00000152128 0.00000152128 1 46 46 46 2116
258	229075 26 1015 1015 0.00000152128 0.00000152128 1 64 64 64 4096
259	229101 50 1015 1015 0.00000152128 0.00000152128 2 0 1 1 1
260	229151 26 1015 1015 0.00000152128 0.00000152128 1 64 64 64 4096
261	229177 25 1015 1015 0.00000152128 0.00000152128 1 0 0 0 0
267	229202 82 1029 1184 0.00000163136 0.00000369088 3 46 1296 2638 3361348
268	229284 82 1029 1184 0.00000163136 0.00000369088 3 64 1296 2656 3363328
269	229366 150 1029 1184 0.00000163136 0.00000369088 6 0 1 3 3
270	229516 82 1029 1184 0.00000163136 0.00000369088 3 64 1296 2656 3363328
271	229598 75 1029 1184 0.00000163136 0.00000369088 3 0 0 0 0
272	229673 109 1099 1274 0.00000263808 0.00000474368 4 46 1296 3934 5040964
273	229782 109 1099 1274 0.00000263808 0.00000474368 4 64 1296 3952 5042944
274	229891 198 1099 1274 0.00000263808 0.00000474368 8 0 1 4 4
275	230089 109 1099 1274 0.00000263808 0.00000474368 4 64 1296 3952 5042944
276	230198 99 1099 1274 0.00000263808 0.00000474368 4 0 0 0 0
297	230297 52 1050 1064 0.0000017472 0.0000018624 2 46 1296 1342 1681732
298	230349 52 1050 1064 0.0000017472 0.0000018624 2 64 1296 1360 1683712
299	230401 96 1050 1064 0.0000017472 0.0000018624 4 0 1 2 2
300	230497 52 1050 1064 0.0000017472 0.0000018624 2 64 1296 1360 1683712
301	230549 48 1050 1064 0.0000017472 0.0000018624 2 0 0 0 0
302	230597 52 1191 1205 0.0000037952 0.0000039104 2 46 1296 1342 1681732
303	230649 52 1191 1205 0.0000037952 0.0000039104 2 64 1296 1360 1683712
304	230701 96 1191 1205 0.0000037952 0.0000039104 4 0 1 2 2
305	230797 52 1191 1205 0.0000037952 0.0000039104 2 64 1296 1360 1683712
306	230849 48 1191 1205 0.0000037952 0.0000039104 2 0 0 0 0
307	230897 53 1036 1227 0.00000163712 0.0000039488 2 46 1296 1342 1681732
308	230950 53 1036 1227 0.00000163712 0.0000039488 2 64 1296 1360 1683712
309	231003 98 1036 1227 0.00000163712 0.0000039488 4 0 1 2 2
310	231101 53 1036 1227 0.00000163712 0.0000039488 2 64 1296 1360 1683712
311	231154 49 1036 1227 0.00000163712 0.0000039488 2 0 0 0 0
317	231203 54 1120 1134 0.00000275392 0.00000286912 2 46 1296 1342 1681732
318	231257 54 1120 1134 0.00000275392 0.00000286912 2 64 1296 1360 1683712
319	231311 100 1120 1134 0.00000275392 0.00000286912 4 0 1 2 2
320	231411 54 1120 1134 0.00000275392 0.00000286912 2 64 1296 1360 1683712
321	231465 50 1120 1134 0.00000275392 0.00000286912 2 0 0 0 0
322	231515 51 1281 1316 0.000004848 0.0000049632 2 46 1296 1342 1681732
323	231566 51 1281 1316 0.000004848 0.0000049632 2 64 1296 1360 1683712
324	231617 94 1281 1316 0.000004848 0.0000049632 4 0 1 2 2
325	231711 51 1281 1316 0.000004848 0.0000049632 2 64 1296 1360 1683712
326	231762 47 1281 1316 0.000004848 0.0000049632 2 0 0 0 0
327	231809 54 1106 1309 0.00000264384 0.00000495552 2 46 1296 1342 1681732
328	231863 54 1106 1309 0.00000264384 0.00000495552 2 64 1296 1360 1683712
329	231917 100 1106 1309 0.00000264384 0.00000495552 4 0 1 2 2
330	232017 54 1106 1309 0.00000264384 0.00000495552 2 64 1296 1360 1683712
331	232071 50 1106 1309 0.00000264384 0.00000495552 2 0 0 0 0
497	232121 131 945 1246 0.000001168 0.0000043264 5 46 1296 5230 6720580
498	232252 131 945 1246 0.000001168 0.0000043264 5 64 1296 5248 6722560
499	232383 236 945 1246 0.000001168 0.0000043264 10 0 1 5 5
500	232619 131 945 1246 0.000001168 0.0000043264 5 64 1296 5248 6722560
501	232750 118 945 1246 0.000001168 0.0000043264 5 0 0 0 0
504	232868 23 911 911 0.0000000672 0.0000000672 1 0 0 0 0
505	232891 24 911 911 0.0000000672 0.0000000672 1 64 64 64 4096
506	232915 29 911 911 0.0000000672 0.0000000672 1 9.6e-09 9.6e-09 9.6e-09 9.216e-17
517	232944 52 1057 1147 0.0000018048 0.0000029056 2 46 1296 1342 1681732
518	232996 52 1057 1147 0.0000018048 0.0000029056 2 64 1296 1360 1683712
519	233048 96 1057 1147 0.0000018048 0.0000029056 4 0 1 2 2
520	233144 52 1057 1147 0.0000018048 0.0000029056 2 64 1296 1360 1683712
521	233196 48 1057 1147 0.0000018048 0.0000029056 2 0 0 0 0
522	233244 54 1127 1217 0.00000281152 0.00000391232 2 46 1296 1342 1681732
523	233298 54 1127 1217 0.00000281152 0.00000391232 2 64 1296 1360 1683712
524	233352 100 1127 1217 0.00000281152 0.00000391232 4 0 1 2 2
525	233452 54 1127 1217 0.00000281152 0.00000391232 2 64 1296 1360 1683712
526	233506 50 1127 1217 0.00000281152 0.00000391232 2 0 0 0 0
527	233556 52 1198 1301 0.0000038528 0.0000049536 2 46 1296 1342 1681732
528	233608 52 1198 1301 0.0000038528 0.0000049536 2 64 1296 1360 1683712
529	233660 96 1198 1301 0.0000038528 0.0000049536 4 0 1 2 2
530	233756 52 1198 1301 0.0000038528 0.0000049536 2 64 1296 1360 1683712
531	233808 48 1198 1301 0.0000038528 0.0000049536 2 0 0 0 0
532	233856 52 1288 1340 0.0000049056 0.0000060064 2 46 1296 1342 1681732
533	233908 52 1288 1340 0.0000049056 0.0000060064 2 64 1296 1360 1683712
534	233960 96 1288 1340 0.0000049056 0.0000060064 4 0 1 2 2
535	234056 52 1288 1340 0.0000049056 0.0000060064 2 64 1296 1360 1683712
536	234108 48 1288 1340 0.0000049056 0.0000060064 2 0 0 0 0
562	234156 27 1362 1362 3.843817082234 3.843817082234 1 50 50 50 2500
563	234183 27 1362 1362 3.843817082234 3.843817082234 1 64 64 64 4096
564	234210 52 1362 1362 3.843817082234 3.843817082234 2 0 1 1 1
565	234262 27 1362 1362 3.843817082234 3.843817082234 1 64 64 64 4096
566	234289 26 1362 1362 3.843817082234 3.843817082234 1 0 0 0 0
572	234315 27 1352 1352 2.975346052554 2.975346052554 1 50 50 50 2500
573	234342 27 1352 1352 2.975346052554 2.975346052554 1 64 64 64 4096
574	234369 52 1352 1352 2.975346052554 2.975346052554 2 0 1 1 1
575	234421 27 1352 1352 2.975346052554 2.975346052554 1 64 64 64 4096
576	234448 26 1352 1352 2.975346052554 2.975346052554 1 0 0 0 0
578	234474 104 931 934 0.0000001248 0.0000001248 4 1278 1278 5112 6533136
579	234578 104 935 938 0.0000001248 0.0000001248 4 1296 1296 5184 6718464
580	234682 104 935 938 0.0000001248 0.0000001248 4 1296 1296 5184 6718464
581	234786 186 935 1157 0.0000001248 0.0000032832 8 0 3 10 20
582	234972 106 935 1157 0.0000001248 0.0000032832 4 1296 1296 5184 6718464
583	235078 121 935 1157 0.0000001248 0.0000032832 4 0 3.1584e-06 6.3168e-06 1.551742976e-11
584	235199 24 996 996 0.0000014112 0.0000014112 1 64 64 64 4096
585	235223 24 996 996 0.0000014112 0.0000014112 1 64 64 64 4096
586	235247 24 997 997 0.0000014112 0.0000014112 1 64 64 64 4096
587	235271 138 1010 1269 0.00000152128 0.00000474368 5 64 1296 5248 6722560
588	235409 138 1010 1269 0.00000152128 0.00000474368 5 64 1296 5248 6722560
589	235547 138 1011 1270 0.00000152128 0.00000474368 5 64 1296 5248 6722560
632	235685 137 989 1262 0.00000140544 0.00000463936 5 64 1296 5248 6722560
633	235822 137 989 1262 0.00000140544 0.00000463936 5 64 1296 5248 6722560
634	235959 137 990 1263 0.00000140544 0.00000463936 5 64 1296 5248 6722560
638	236096 25 975 975 0.00000129536 0.00000129536 1 64 64 64 4096
639	236121 25 975 975 0.00000129536 0.00000129536 1 64 64 64 4096
640	236146 25 976 976 0.00000129536 0.00000129536 1 64 64 64 4096
656	236171 25 954 954 0.00000117952 0.00000117952 1 64 64 64 4096
657	236196 25 954 954 0.00000117952 0.00000117952 1 64 64 64 4096
658	236221 25 955 955 0.00000117952 0.00000117952 1 64 64 64 4096
659	236246 135 968 1255 0.0000012896 0.00000453504 5 64 1296 5248 6722560
660	236381 135 968 1255 0.0000012896 0.00000453504 5 64 1296 5248 6722560
661	236516 135 969 1256 0.0000012896 0.00000453504 5 64 1296 5248 6722560
671	236651 26 1017 1017 0.00000152704 0.00000152704 1 64 64 64 4096
672	236677 26 1017 1017 0.00000152704 0.00000152704 1 64 64 64 4096
673	236703 26 1018 1018 0.00000152704 0.00000152704 1 64 64 64 4096
677	236729 80 1031 1186 0.00000163712 0.0000037952 3 64 1296 2656 3363328
678	236809 80 1031 1186 0.00000163712 0.0000037952 3 64 1296 2656 3363328
679	236889 80 1032 1187 0.00000163712 0.0000037952 3 64 1296 2656 3363328
680	236969 108 1101 1276 0.00000264384 0.000004848 4 64 1296 3952 5042944
681	237077 108 1101 1276 0.00000264384 0.000004848 4 64 1296 3952 5042944
682	237185 108 1102 1277 0.00000264384 0.000004848 4 64 1296 3952 5042944
695	237293 54 1038 1229 0.00000164288 0.00000405312 2 64 1296 1360 1683712
696	237347 54 1038 1229 0.00000164288 0.00000405312 2 64 1296 1360 1683712
697	237401 54 1039 1230 0.00000164288 0.00000405312 2 64 1296 1360 1683712
701	237455 53 1108 1319 0.0000026496 0.00000505984 2 64 1296 1360 1683712
702	237508 53 1108 1319 0.0000026496 0.00000505984 2 64 1296 1360 1683712
703	237561 53 1109 1320 0.0000026496 0.00000505984 2 64 1296 1360 1683712
779	237614 136 946 1248 0.00000117376 0.00000443072 5 64 1296 5248 6722560
780	237750 136 946 1248 0.00000117376 0.00000443072 5 64 1296 5248 6722560
781	237886 136 947 1249 0.00000117376 0.00000443072 5 64 1296 5248 6722560
782	238022 24 998 998 0.0000014112 0.0000014112 1 46 46 46 2116
783	238046 138 1012 1271 0.00000152128 0.00000474368 5 46 1278 5158 6535252
798	238184 137 991 1264 0.00000140544 0.00000463936 5 46 1278 5158 6535252
800	238321 25 977 977 0.00000129536 0.00000129536 1 46 46 46 2116
806	238346 25 956 956 0.00000117952 0.00000117952 1 46 46 46 2116
807	238371 135 970 1257 0.0000012896 0.00000453504 5 46 1278 5158 6535252
811	238506 26 1019 1019 0.00000152704 0.00000152704 1 46 46 46 2116
813	238532 80 1033 1188 0.00000163712 0.0000037952 3 46 1278 2602 3268684
814	238612 108 1103 1278 0.00000264384 0.000004848 4 46 1278 3880 4901968
819	238720 54 1040 1231 0.00000164288 0.00000405312 2 46 1278 1324 1635400
821	238774 53 1110 1321 0.0000026496 0.00000505984 2 46 1278 1324 1635400
847	238827 136 948 1250 0.00000117376 0.00000443072 5 46 1278 5158 6535252
857	238963 52 1052 1136 0.0000018048 0.0000029056 2 64 1296 1360 1683712
858	239015 52 1052 1136 0.0000018048 0.0000029056 2 64 1296 1360 1683712
859	239067 52 1053 1137 0.0000018048 0.0000029056 2 64 1296 1360 1683712
860	239119 52 1193 1290 0.0000038528 0.0000049536 2 64 1296 1360 1683712
861	239171 52 1193 1290 0.0000038528 0.0000049536 2 64 1296 1360 1683712
862	239223 52 1194 1291 0.0000038528 0.0000049536 2 64 1296 1360 1683712
863	239275 54 1122 1206 0.00000281152 0.00000391232 2 64 1296 1360 1683712
864	239329 54 1122 1206 0.00000281152 0.00000391232 2 64 1296 1360 1683712
865	239383 54 1123 1207 0.00000281152 0.00000391232 2 64 1296 1360 1683712
866	239437 52 1283 1328 0.0000049056 0.0000060064 2 64 1296 1360 1683712
867	239489 52 1283 1328 0.0000049056 0.0000060064 2 64 1296 1360 1683712
868	239541 52 1284 1329 0.0000049056 0.0000060064 2 64 1296 1360 1683712
893	239593 24 927 927 0.0000001248 0.0000001248 1 64 64 64 4096
894	239617 24 927 927 0.0000001248 0.0000001248 1 64 64 64 4096
895	239641 24 928 928 0.0000001248 0.0000001248 1 64 64 64 4096
902	239665 52 1059 1222 0.0000018624 0.0000039488 2 64 1296 1360 1683712
903	239717 52 1059 1222 0.0000018624 0.0000039488 2 64 1296 1360 1683712
904	239769 52 1060 1223 0.0000018624 0.0000039488 2 64 1296 1360 1683712
905	239821 54 1129 1304 0.00000286912 0.00000495552 2 64 1296 1360 1683712
906	239875 54 1129 1304 0.00000286912 0.00000495552 2 64 1296 1360 1683712
907	239929 54 1130 1305 0.00000286912 0.00000495552 2 64 1296 1360 1683712
908	239983 52 1200 1324 0.0000039104 0.0000059968 2 64 1296 1360 1683712
909	240035 52 1200 1324 0.0000039104 0.0000059968 2 64 1296 1360 1683712
910	240087 52 1201 1325 0.0000039104 0.0000059968 2 64 1296 1360 1683712
911	240139 52 1310 1344 0.0000049632 0.0000070496 2 64 1296 1360 1683712
912	240191 52 1310 1344 0.0000049632 0.0000070496 2 64 1296 1360 1683712
913	240243 52 1311 1345 0.0000049632 0.0000070496 2 64 1296 1360 1683712
929	240295 27 1363 1363 3.843817139834 3.843817139834 1 64 64 64 4096
930	240322 27 1363 1363 3.843817139834 3.843817139834 1 64 64 64 4096
935	240349 27 1353 1353 2.975346110154 2.975346110154 1 64 64 64 4096
936	240376 27 1353 1353 2.975346110154 2.975346110154 1 64 64 64 4096
937	240403 27 1354 1354 2.975346110154 2.975346110154 1 64 64 64 4096
938	240430 106 940 1241 0.000001168 0.0000043264 4 1296 1296 5184 6718464
939	240536 106 940 1241 0.000001168 0.0000043264 4 1296 1296 5184 6718464
940	240642 106 941 1242 0.000001168 0.0000043264 4 1296 1296 5184 6718464
944	240748 52 1054 1138 0.0000018048 0.0000029056 2 46 1278 1324 1635400
945	240800 52 1195 1292 0.0000038528 0.0000049536 2 46 1278 1324 1635400
946	240852 54 1124 1208 0.00000281152 0.00000391232 2 46 1278 1324 1635400
947	240906 52 1285 1331 0.0000049056 0.0000060064 2 46 1278 1324 1635400
956	240958 24 929 929 0.0000001248 0.0000001248 1 46 46 46 2116
959	240982 52 1061 1224 0.0000018624 0.0000039488 2 46 1278 1324 1635400
960	241034 54 1131 1306 0.00000286912 0.00000495552 2 46 1278 1324 1635400
961	241088 52 1202 1326 0.0000039104 0.0000059968 2 46 1278 1324 1635400
962	241140 52 1313 1346 0.0000049632 0.0000070496 2 46 1278 1324 1635400
970	241192 27 1355 1355 2.975346110154 2.975346110154 1 46 46 46 2116
971	241219 106 942 1243 0.000001168 0.0000043264 4 1278 1278 5112 6533136
973	241325 23 943 943 0.000001168 0.000001168 1 28 28 28 784
974	241348 25 949 949 0.00000117376 0.00000117376 1 28 28 28 784
975	241373 25 964 964 0.00000128384 0.00000128384 1 28 28 28 784
976	241398 24 971 971 0.0000012896 0.0000012896 1 28 28 28 784
977	241422 25 985 985 0.00000139968 0.00000139968 1 28 28 28 784
978	241447 25 992 992 0.00000140544 0.00000140544 1 28 28 28 784
979	241472 26 1006 1006 0.00000151552 0.00000151552 1 28 28 28 784
980	241498 26 1013 1013 0.00000152128 0.00000152128 1 28 28 28 784
981	241524 52 1027 1097 0.00000163136 0.00000263808 2 28 28 56 1568
982	241576 26 1034 1034 0.00000163712 0.00000163712 1 28 28 28 784
983	241602 50 1048 1189 0.0000017472 0.0000037952 2 28 28 56 1568
984	241652 25 1055 1055 0.0000018048 0.0000018048 1 28 28 28 784
985	241677 26 1104 1104 0.00000264384 0.00000264384 1 28 28 28 784
986	241703 50 1118 1279 0.00000275392 0.000004848 2 28 28 56 1568
987	241753 26 1125 1125 0.00000281152 0.00000281152 1 28 28 28 784
988	241779 54 1140 1148 0.0000029056 0.0000029056 2 1258 1258 2516 3165128
989	241833 48 1140 1148 0.0000029056 0.0000029056 2 1 2 3 5
990	241881 54 1141 1149 0.0000029056 0.0000029056 2 1250 1250 2500 3125000
991	241935 57 1141 1149 0.0000029056 0.0000029056 2 0 2.9056e-06 2.9056e-06 8.44251136e-12
992	241992 48 1141 1149 0.0000029056 0.0000029056 2 0 0 0 0
993	242040 27 1142 1142 0.0000029056 0.0000029056 1 1258 1258 1258 1582564
994	242067 27 1144 1144 0.0000029056 0.0000029056 1 1278 1278 1278 1633284
995	242094 27 1144 1144 0.0000029056 0.0000029056 1 1278 1278 1278 1633284
996	242121 25 1196 1196 0.0000038528 0.0000038528 1 28 28 28 784
997	242146 56 1210 1218 0.00000391232 0.00000391232 2 1258 1258 2516 3165128
998	242202 50 1210 1218 0.00000391232 0.00000391232 2 1 2 3 5
999	242252 56 1211 1219 0.00000391232 0.00000391232 2 1250 1250 2500 3125000
1000	242308 62 1211 1219 0.00000391232 0.00000391232 2 0 3.91232e-06 3.91232e-06 1.53062477824e-11
1001	242370 52 1211 1219 0.00000391232 0.00000391232 2 0 0 0 0
1002	242422 29 1212 1212 0.00000391232 0.00000391232 1 1258 1258 1258 1582564
1003	242451 29 1214 1214 0.00000391232 0.00000391232 1 1278 1278 1278 1633284
1004	242480 29 1214 1214 0.00000391232 0.00000391232 1 1278 1278 1278 1633284
1005	242509 57 1239 1347 0.00000415744 0.0000070496 2 1278 1278 2556 3266568
1006	242566 26 1286 1286 0.0000049056 0.0000049056 1 28 28 28 784
1007	242592 56 1294 1302 0.0000049536 0.0000049536 2 1258 1258 2516 3165128
1008	242648 50 1294 1302 0.0000049536 0.0000049536 2 1 2 3 5
1009	242698 56 1295 1303 0.0000049536 0.0000049536 2 1250 1250 2500 3125000
1010	242754 59 1295 1303 0.0000049536 0.0000049536 2 0 4.9536e-06 4.9536e-06 2.453815296e-11
1011	242813 50 1295 1303 0.0000049536 0.0000049536 2 0 0 0 0
1012	242863 28 1296 1296 0.0000049536 0.0000049536 1 1258 1258 1258 1582564
1013	242891 28 1298 1298 0.0000049536 0.0000049536 1 1278 1278 1278 1633284
1014	242919 28 1298 1298 0.0000049536 0.0000049536 1 1278 1278 1278 1633284
1015	242947 29 1322 1322 0.00000505984 0.00000505984 1 1278 1278 1278 1633284
1016	242976 28 1327 1327 0.0000059968 0.0000059968 1 1278 1278 1278 1633284
1017	243004 56 1333 1341 0.0000060064 0.0000060064 2 1258 1258 2516 3165128
1018	243060 50 1333 1341 0.0000060064 0.0000060064 2 1 2 3 5
1019	243110 56 1334 1342 0.0000060064 0.0000060064 2 1250 1250 2500 3125000
1020	243166 59 1334 1342 0.0000060064 0.0000060064 2 0 6.0064e-06 6.0064e-06 3.607684096e-11
1021	243225 50 1334 1342 0.0000060064 0.0000060064 2 0 0 0 0
1022	243275 28 1335 1335 0.0000060064 0.0000060064 1 1258 1258 1258 1582564
1023	243303 28 1337 1337 0.0000060064 0.0000060064 1 1278 1278 1278 1633284
1024	243331 28 1337 1337 0.0000060064 0.0000060064 1 1278 1278 1278 1633284
vector 1025 KFatTreeNew.hosts.replica[0].app[0] throughput:vector ETV
attr source throughput(packetReceived)
attr title "throughput, vector"
attr unit bps
vector 1026 KFatTreeNew.hosts.replica[1].app[0] throughput:vector ETV
attr source throughput(packetReceived)
attr title "throughput, vector"
attr unit bps
vector 1027 KFatTreeNew.hosts.replica[2].app[0] throughput:vector ETV
attr source throughput(packetReceived)
attr title "throughput, vector"
attr unit bps
vector 1028 KFatTreeNew.hosts.replica[3].app[0] throughput:vector ETV
attr source throughput(packetReceived)
attr title "throughput, vector"
attr unit bps
vector 1029 KFatTreeNew.hosts.replica[4].app[0] throughput:vector ETV
attr source throughput(packetReceived)
attr title "throughput, vector"
attr unit bps
vector 1030 KFatTreeNew.hosts.replica[5].app[0] throughput:vector ETV
attr source throughput(packetReceived)
attr title "throughput, vector"
attr unit bps
vector 1031 KFatTreeNew.hosts.replica[6].app[0] throughput:vector ETV
attr source throughput(packetReceived)
attr title "throughput, vector"
attr unit bps
vector 1032 KFatTreeNew.hosts.replica[7].app[0] throughput:vector ETV
attr source throughput(packetReceived)
attr title "throughput, vector"
attr unit bps
vector 1033 KFatTreeNew.hosts.replica[8].app[0] throughput:vector ETV
attr source throughput(packetReceived)
attr title "throughput, vector"
attr unit bps
vector 1034 KFatTreeNew.hosts.replica[9].app[0] throughput:vector ETV
attr source throughput(packetReceived)
attr title "throughput, vector"
attr unit bps
vector 1035 KFatTreeNew.hosts.replica[10].app[0] throughput:vector ETV
attr source throughput(packetReceived)
attr title "throughput, vector"
attr unit bps
vector 1036 KFatTreeNew.hosts.replica[11].app[0] throughput:vector ETV
attr source throughput(packetReceived)
attr title "throughput, vector"
attr unit bps
vector 1037 KFatTreeNew.hosts.replica[12].app[0] throughput:vector ETV
attr source throughput(packetReceived)
attr title "throughput, vector"
attr unit bps
vector 1038 KFatTreeNew.hosts.replica[13].app[0] throughput:vector ETV
attr source throughput(packetReceived)
attr title "throughput, vector"
attr unit bps
1025	245533 629 1363 1363 0.1 3.843817139834 39 0 0 0 0
1026	246162 629 1363 1363 0.1 3.843817139834 39 0 0 0 0
1027	246791 634 1363 1363 0.1 3.843817139834 39 0 200000 200000 40000000000
1028	247425 634 1363 1363 0.1 3.843817139834 39 0 200000 200000 40000000000
1029	248059 634 1363 1363 0.1 3.843817139834 39 0 200000 200000 40000000000
1030	248693 634 1363 1363 0.1 3.843817139834 39 0 200000 200000 40000000000
1031	249327 629 1363 1363 0.1 3.843817139834 39 0 0 0 0
1032	249956 629 1363 1363 0.1 3.843817139834 39 0 0 0 0
1033	250585 629 1363 1363 0.1 3.843817139834 39 0 0 0 0
1034	251214 629 1363 1363 0.1 3.843817139834 39 0 0 0 0
1035	251843 629 1363 1363 0.1 3.843817139834 39 0 0 0 0
1036	252472 629 1363 1363 0.1 3.843817139834 39 0 0 0 0
1037	253101 629 1363 1363 0.1 3.843817139834 39 0 0 0 0
1038	253730 629 1363 1363 0.1 3.843817139834 39 0 0 0 0

