version 2
run General-0-20220511-22:29:13-28673
attr configname General
attr datetime 20220511-22:29:13
attr experiment General
attr inifile omnetpp.ini
attr iterationvars ""
attr iterationvarsf ""
attr measurement ""
attr network KFatTreeNew
attr processid 28673
attr repetition 0
attr replication #0
attr resultdir results
attr runnumber 0
attr seedset 0
param **.k 4
param **.client.numApps 1
param **.client.app[0].typename "\"ClientApp\""
param **.client.app[0].localPort 100
param **.client.app[0].destPort 100
param **.client.app[0].messageLength 1250B
param **.client.app[0].sendInterval 0.5s
param **.client.app[0].destAddresses "\"hosts.coordinator\""
param **.coordinator.numApps 1
param **.coordinator.app[0].typename "\"CoordApp\""
param **.coordinator.app[0].localPort 100
param **.coordinator.app[0].destPort 100
param **.coordinator.app[0].messageLength 1250B
param **.coordinator.app[0].destAddresses "moduleListByPath(\"**.replica[*]\")"
param **.replica[*].numApps 1
param **.replica[*].app[0].typename "\"ReplicaApp\""
param **.replica[*].app[0].localPort 100
param **.replica[*].app[0].destPort 100
param **.replica[*].app[0].messageLength 1250B
param **.replica[*].app[0].destAddresses "\"hosts.coordinator\""
param **.app[0].chooseDestAddrMode "\"perBurst\""
param **.app[0].startTime 60s
param **.app[0].stopTime 1000s
param **.app[0].delayLimit 3s

vector 0 KFatTreeNew.hosts.client.app[0] packetSent:vector(packetBytes) ETV
attr interpolationmode none
attr source packetSent
attr title "packets sent, vector(packetBytes)"
vector 1 KFatTreeNew.hosts.client.udp packetSent:vector(packetBytes) ETV
attr interpolationmode none
attr source packetSent
attr title "packets sent, vector(packetBytes)"
vector 2 KFatTreeNew.hosts.client.ipv4.arp arpRequestSent:vector(packetBytes) ETV
attr source arpRequestSent
attr title "ARP request sent, vector(packetBytes)"
vector 3 KFatTreeNew.hosts.client.eth[0].encap encapPk:vector(packetBytes) ETV
attr interpolationmode none
attr source encapPk
attr title "packets encapsulated, vector(packetBytes)"
vector 4 KFatTreeNew.hosts.client.eth[0].mac packetReceivedFromUpper:vector(packetBytes) ETV
attr interpolationmode none
attr source packetReceivedFromUpper
attr title "packet bytes from higher layer, vector(packetBytes)"
vector 5 KFatTreeNew.hosts.client.eth[0].mac.queue packetPushed:vector(packetBytes) ETV
attr interpolationmode none
attr title "packet pushed, vector(packetBytes)"
vector 6 KFatTreeNew.hosts.client.eth[0].mac.queue queueLength:vector ETV
attr interpolationmode sample-hold
attr source "count(packetPushed) - count(packetPopped) - count(packetRemoved) - count(packetDropped)"
attr title "queue length, vector"
vector 7 KFatTreeNew.hosts.client.eth[0].mac.queue packetPopped:vector(packetBytes) ETV
attr interpolationmode none
attr title "packet popped, vector(packetBytes)"
vector 8 KFatTreeNew.hosts.client.eth[0].mac.queue queueingTime:vector ETV
attr interpolationmode none
attr source queueingTime(packetPopped)
attr title "queueing times, vector"
attr unit s
vector 9 KFatTreeNew.pod[0].edgeSwitch[0].eth[0].mac rxPkOk:vector(packetBytes) ETV
attr interpolationmode none
attr source rxPkOk
attr title "packets received OK, vector(packetBytes)"
vector 10 KFatTreeNew.pod[0].edgeSwitch[0].eth[0].mac passedUpPk:vector(packetBytes) ETV
attr interpolationmode none
attr source packetSentToUpper
attr title "packets passed to higher layer, vector(packetBytes)"
vector 11 KFatTreeNew.hosts.client.eth[0].mac txPk:vector(packetBytes) ETV
attr interpolationmode none
attr source packetSentToLower
attr title "packets transmitted, vector(packetBytes)"
vector 12 KFatTreeNew.pod[0].edgeSwitch[0].eth[0].encap decapPk:vector(packetBytes) ETV
attr interpolationmode none
attr source decapPk
attr title "packets decapsulated, vector(packetBytes)"
vector 13 KFatTreeNew.pod[0].edgeSwitch[0].ipv4.arp arpReplySent:vector(packetBytes) ETV
attr source arpReplySent
attr title "ARP replies sent, vector(packetBytes)"
vector 14 KFatTreeNew.pod[0].edgeSwitch[0].eth[0].encap encapPk:vector(packetBytes) ETV
attr interpolationmode none
attr source encapPk
attr title "packets encapsulated, vector(packetBytes)"
vector 15 KFatTreeNew.pod[0].edgeSwitch[0].eth[0].mac packetReceivedFromUpper:vector(packetBytes) ETV
attr interpolationmode none
attr source packetReceivedFromUpper
attr title "packet bytes from higher layer, vector(packetBytes)"
vector 16 KFatTreeNew.pod[0].edgeSwitch[0].eth[0].mac.queue packetPushed:vector(packetBytes) ETV
attr interpolationmode none
attr title "packet pushed, vector(packetBytes)"
vector 17 KFatTreeNew.pod[0].edgeSwitch[0].eth[0].mac.queue queueLength:vector ETV
attr interpolationmode sample-hold
attr source "count(packetPushed) - count(packetPopped) - count(packetRemoved) - count(packetDropped)"
attr title "queue length, vector"
vector 18 KFatTreeNew.pod[0].edgeSwitch[0].eth[0].mac.queue packetPopped:vector(packetBytes) ETV
attr interpolationmode none
attr title "packet popped, vector(packetBytes)"
vector 19 KFatTreeNew.pod[0].edgeSwitch[0].eth[0].mac.queue queueingTime:vector ETV
attr interpolationmode none
attr source queueingTime(packetPopped)
attr title "queueing times, vector"
attr unit s
vector 20 KFatTreeNew.hosts.client.eth[0].mac rxPkOk:vector(packetBytes) ETV
attr interpolationmode none
attr source rxPkOk
attr title "packets received OK, vector(packetBytes)"
vector 21 KFatTreeNew.hosts.client.eth[0].mac passedUpPk:vector(packetBytes) ETV
attr interpolationmode none
attr source packetSentToUpper
attr title "packets passed to higher layer, vector(packetBytes)"
vector 22 KFatTreeNew.pod[0].edgeSwitch[0].eth[0].mac txPk:vector(packetBytes) ETV
attr interpolationmode none
attr source packetSentToLower
attr title "packets transmitted, vector(packetBytes)"
vector 23 KFatTreeNew.hosts.client.eth[0].encap decapPk:vector(packetBytes) ETV
attr interpolationmode none
attr source decapPk
attr title "packets decapsulated, vector(packetBytes)"
vector 24 KFatTreeNew.pod[0].edgeSwitch[0].ipv4.arp arpRequestSent:vector(packetBytes) ETV
attr source arpRequestSent
attr title "ARP request sent, vector(packetBytes)"
vector 25 KFatTreeNew.pod[0].edgeSwitch[0].eth[2].encap encapPk:vector(packetBytes) ETV
attr interpolationmode none
attr source encapPk
attr title "packets encapsulated, vector(packetBytes)"
vector 26 KFatTreeNew.pod[0].edgeSwitch[0].eth[2].mac packetReceivedFromUpper:vector(packetBytes) ETV
attr interpolationmode none
attr source packetReceivedFromUpper
attr title "packet bytes from higher layer, vector(packetBytes)"
vector 27 KFatTreeNew.pod[0].edgeSwitch[0].eth[2].mac.queue packetPushed:vector(packetBytes) ETV
attr interpolationmode none
attr title "packet pushed, vector(packetBytes)"
vector 28 KFatTreeNew.pod[0].edgeSwitch[0].eth[2].mac.queue queueLength:vector ETV
attr interpolationmode sample-hold
attr source "count(packetPushed) - count(packetPopped) - count(packetRemoved) - count(packetDropped)"
attr title "queue length, vector"
vector 29 KFatTreeNew.pod[0].edgeSwitch[0].eth[2].mac.queue packetPopped:vector(packetBytes) ETV
attr interpolationmode none
attr title "packet popped, vector(packetBytes)"
vector 30 KFatTreeNew.pod[0].edgeSwitch[0].eth[2].mac.queue queueingTime:vector ETV
attr interpolationmode none
attr source queueingTime(packetPopped)
attr title "queueing times, vector"
attr unit s
vector 31 KFatTreeNew.pod[0].aggregateSwitch[0].eth[2].mac rxPkOk:vector(packetBytes) ETV
attr interpolationmode none
attr source rxPkOk
attr title "packets received OK, vector(packetBytes)"
vector 32 KFatTreeNew.pod[0].aggregateSwitch[0].eth[2].mac passedUpPk:vector(packetBytes) ETV
attr interpolationmode none
attr source packetSentToUpper
attr title "packets passed to higher layer, vector(packetBytes)"
vector 33 KFatTreeNew.pod[0].edgeSwitch[0].eth[2].mac txPk:vector(packetBytes) ETV
attr interpolationmode none
attr source packetSentToLower
attr title "packets transmitted, vector(packetBytes)"
vector 34 KFatTreeNew.pod[0].aggregateSwitch[0].eth[2].encap decapPk:vector(packetBytes) ETV
attr interpolationmode none
attr source decapPk
attr title "packets decapsulated, vector(packetBytes)"
vector 35 KFatTreeNew.pod[0].aggregateSwitch[0].ipv4.arp arpReplySent:vector(packetBytes) ETV
attr source arpReplySent
attr title "ARP replies sent, vector(packetBytes)"
vector 36 KFatTreeNew.pod[0].aggregateSwitch[0].eth[2].encap encapPk:vector(packetBytes) ETV
attr interpolationmode none
attr source encapPk
attr title "packets encapsulated, vector(packetBytes)"
vector 37 KFatTreeNew.pod[0].aggregateSwitch[0].eth[2].mac packetReceivedFromUpper:vector(packetBytes) ETV
attr interpolationmode none
attr source packetReceivedFromUpper
attr title "packet bytes from higher layer, vector(packetBytes)"
vector 38 KFatTreeNew.pod[0].aggregateSwitch[0].eth[2].mac.queue packetPushed:vector(packetBytes) ETV
attr interpolationmode none
attr title "packet pushed, vector(packetBytes)"
vector 39 KFatTreeNew.pod[0].aggregateSwitch[0].eth[2].mac.queue queueLength:vector ETV
attr interpolationmode sample-hold
attr source "count(packetPushed) - count(packetPopped) - count(packetRemoved) - count(packetDropped)"
attr title "queue length, vector"
vector 40 KFatTreeNew.pod[0].aggregateSwitch[0].eth[2].mac.queue packetPopped:vector(packetBytes) ETV
attr interpolationmode none
attr title "packet popped, vector(packetBytes)"
vector 41 KFatTreeNew.pod[0].aggregateSwitch[0].eth[2].mac.queue queueingTime:vector ETV
attr interpolationmode none
attr source queueingTime(packetPopped)
attr title "queueing times, vector"
attr unit s
vector 42 KFatTreeNew.pod[0].edgeSwitch[0].eth[2].mac rxPkOk:vector(packetBytes) ETV
attr interpolationmode none
attr source rxPkOk
attr title "packets received OK, vector(packetBytes)"
vector 43 KFatTreeNew.pod[0].edgeSwitch[0].eth[2].mac passedUpPk:vector(packetBytes) ETV
attr interpolationmode none
attr source packetSentToUpper
attr title "packets passed to higher layer, vector(packetBytes)"
vector 44 KFatTreeNew.pod[0].aggregateSwitch[0].eth[2].mac txPk:vector(packetBytes) ETV
attr interpolationmode none
attr source packetSentToLower
attr title "packets transmitted, vector(packetBytes)"
vector 45 KFatTreeNew.pod[0].edgeSwitch[0].eth[2].encap decapPk:vector(packetBytes) ETV
attr interpolationmode none
attr source decapPk
attr title "packets decapsulated, vector(packetBytes)"
vector 46 KFatTreeNew.pod[0].aggregateSwitch[0].ipv4.arp arpRequestSent:vector(packetBytes) ETV
attr source arpRequestSent
attr title "ARP request sent, vector(packetBytes)"
vector 47 KFatTreeNew.pod[0].aggregateSwitch[0].eth[3].encap encapPk:vector(packetBytes) ETV
attr interpolationmode none
attr source encapPk
attr title "packets encapsulated, vector(packetBytes)"
vector 48 KFatTreeNew.pod[0].aggregateSwitch[0].eth[3].mac packetReceivedFromUpper:vector(packetBytes) ETV
attr interpolationmode none
attr source packetReceivedFromUpper
attr title "packet bytes from higher layer, vector(packetBytes)"
vector 49 KFatTreeNew.pod[0].aggregateSwitch[0].eth[3].mac.queue packetPushed:vector(packetBytes) ETV
attr interpolationmode none
attr title "packet pushed, vector(packetBytes)"
vector 50 KFatTreeNew.pod[0].aggregateSwitch[0].eth[3].mac.queue queueLength:vector ETV
attr interpolationmode sample-hold
attr source "count(packetPushed) - count(packetPopped) - count(packetRemoved) - count(packetDropped)"
attr title "queue length, vector"
vector 51 KFatTreeNew.pod[0].aggregateSwitch[0].eth[3].mac.queue packetPopped:vector(packetBytes) ETV
attr interpolationmode none
attr title "packet popped, vector(packetBytes)"
vector 52 KFatTreeNew.pod[0].aggregateSwitch[0].eth[3].mac.queue queueingTime:vector ETV
attr interpolationmode none
attr source queueingTime(packetPopped)
attr title "queueing times, vector"
attr unit s
vector 53 KFatTreeNew.pod[0].edgeSwitch[1].eth[2].mac rxPkOk:vector(packetBytes) ETV
attr interpolationmode none
attr source rxPkOk
attr title "packets received OK, vector(packetBytes)"
vector 54 KFatTreeNew.pod[0].edgeSwitch[1].eth[2].mac passedUpPk:vector(packetBytes) ETV
attr interpolationmode none
attr source packetSentToUpper
attr title "packets passed to higher layer, vector(packetBytes)"
vector 55 KFatTreeNew.pod[0].aggregateSwitch[0].eth[3].mac txPk:vector(packetBytes) ETV
attr interpolationmode none
attr source packetSentToLower
attr title "packets transmitted, vector(packetBytes)"
vector 56 KFatTreeNew.pod[0].edgeSwitch[1].eth[2].encap decapPk:vector(packetBytes) ETV
attr interpolationmode none
attr source decapPk
attr title "packets decapsulated, vector(packetBytes)"
vector 57 KFatTreeNew.pod[0].edgeSwitch[1].ipv4.arp arpReplySent:vector(packetBytes) ETV
attr source arpReplySent
attr title "ARP replies sent, vector(packetBytes)"
vector 58 KFatTreeNew.pod[0].edgeSwitch[1].eth[2].encap encapPk:vector(packetBytes) ETV
attr interpolationmode none
attr source encapPk
attr title "packets encapsulated, vector(packetBytes)"
vector 59 KFatTreeNew.pod[0].edgeSwitch[1].eth[2].mac packetReceivedFromUpper:vector(packetBytes) ETV
attr interpolationmode none
attr source packetReceivedFromUpper
attr title "packet bytes from higher layer, vector(packetBytes)"
vector 60 KFatTreeNew.pod[0].edgeSwitch[1].eth[2].mac.queue packetPushed:vector(packetBytes) ETV
attr interpolationmode none
attr title "packet pushed, vector(packetBytes)"
vector 61 KFatTreeNew.pod[0].edgeSwitch[1].eth[2].mac.queue queueLength:vector ETV
attr interpolationmode sample-hold
attr source "count(packetPushed) - count(packetPopped) - count(packetRemoved) - count(packetDropped)"
attr title "queue length, vector"
vector 62 KFatTreeNew.pod[0].edgeSwitch[1].eth[2].mac.queue packetPopped:vector(packetBytes) ETV
attr interpolationmode none
attr title "packet popped, vector(packetBytes)"
vector 63 KFatTreeNew.pod[0].edgeSwitch[1].eth[2].mac.queue queueingTime:vector ETV
attr interpolationmode none
attr source queueingTime(packetPopped)
attr title "queueing times, vector"
attr unit s
vector 64 KFatTreeNew.pod[0].aggregateSwitch[0].eth[3].mac rxPkOk:vector(packetBytes) ETV
attr interpolationmode none
attr source rxPkOk
attr title "packets received OK, vector(packetBytes)"
vector 65 KFatTreeNew.pod[0].aggregateSwitch[0].eth[3].mac passedUpPk:vector(packetBytes) ETV
attr interpolationmode none
attr source packetSentToUpper
attr title "packets passed to higher layer, vector(packetBytes)"
vector 66 KFatTreeNew.pod[0].edgeSwitch[1].eth[2].mac txPk:vector(packetBytes) ETV
attr interpolationmode none
attr source packetSentToLower
attr title "packets transmitted, vector(packetBytes)"
vector 67 KFatTreeNew.pod[0].aggregateSwitch[0].eth[3].encap decapPk:vector(packetBytes) ETV
attr interpolationmode none
attr source decapPk
attr title "packets decapsulated, vector(packetBytes)"
vector 68 KFatTreeNew.pod[0].edgeSwitch[1].ipv4.arp arpRequestSent:vector(packetBytes) ETV
attr source arpRequestSent
attr title "ARP request sent, vector(packetBytes)"
vector 69 KFatTreeNew.pod[0].edgeSwitch[1].eth[0].encap encapPk:vector(packetBytes) ETV
attr interpolationmode none
attr source encapPk
attr title "packets encapsulated, vector(packetBytes)"
vector 70 KFatTreeNew.pod[0].edgeSwitch[1].eth[0].mac packetReceivedFromUpper:vector(packetBytes) ETV
attr interpolationmode none
attr source packetReceivedFromUpper
attr title "packet bytes from higher layer, vector(packetBytes)"
vector 71 KFatTreeNew.pod[0].edgeSwitch[1].eth[0].mac.queue packetPushed:vector(packetBytes) ETV
attr interpolationmode none
attr title "packet pushed, vector(packetBytes)"
vector 72 KFatTreeNew.pod[0].edgeSwitch[1].eth[0].mac.queue queueLength:vector ETV
attr interpolationmode sample-hold
attr source "count(packetPushed) - count(packetPopped) - count(packetRemoved) - count(packetDropped)"
attr title "queue length, vector"
vector 73 KFatTreeNew.pod[0].edgeSwitch[1].eth[0].mac.queue packetPopped:vector(packetBytes) ETV
attr interpolationmode none
attr title "packet popped, vector(packetBytes)"
vector 74 KFatTreeNew.pod[0].edgeSwitch[1].eth[0].mac.queue queueingTime:vector ETV
attr interpolationmode none
attr source queueingTime(packetPopped)
attr title "queueing times, vector"
attr unit s
vector 75 KFatTreeNew.hosts.coordinator.eth[0].mac rxPkOk:vector(packetBytes) ETV
attr interpolationmode none
attr source rxPkOk
attr title "packets received OK, vector(packetBytes)"
vector 76 KFatTreeNew.hosts.coordinator.eth[0].mac passedUpPk:vector(packetBytes) ETV
attr interpolationmode none
attr source packetSentToUpper
attr title "packets passed to higher layer, vector(packetBytes)"
vector 77 KFatTreeNew.pod[0].edgeSwitch[1].eth[0].mac txPk:vector(packetBytes) ETV
attr interpolationmode none
attr source packetSentToLower
attr title "packets transmitted, vector(packetBytes)"
vector 78 KFatTreeNew.hosts.coordinator.eth[0].encap decapPk:vector(packetBytes) ETV
attr interpolationmode none
attr source decapPk
attr title "packets decapsulated, vector(packetBytes)"
vector 79 KFatTreeNew.hosts.coordinator.ipv4.arp arpReplySent:vector(packetBytes) ETV
attr source arpReplySent
attr title "ARP replies sent, vector(packetBytes)"
vector 80 KFatTreeNew.hosts.coordinator.eth[0].encap encapPk:vector(packetBytes) ETV
attr interpolationmode none
attr source encapPk
attr title "packets encapsulated, vector(packetBytes)"
vector 81 KFatTreeNew.hosts.coordinator.eth[0].mac packetReceivedFromUpper:vector(packetBytes) ETV
attr interpolationmode none
attr source packetReceivedFromUpper
attr title "packet bytes from higher layer, vector(packetBytes)"
vector 82 KFatTreeNew.hosts.coordinator.eth[0].mac.queue packetPushed:vector(packetBytes) ETV
attr interpolationmode none
attr title "packet pushed, vector(packetBytes)"
vector 83 KFatTreeNew.hosts.coordinator.eth[0].mac.queue queueLength:vector ETV
attr interpolationmode sample-hold
attr source "count(packetPushed) - count(packetPopped) - count(packetRemoved) - count(packetDropped)"
attr title "queue length, vector"
vector 84 KFatTreeNew.hosts.coordinator.eth[0].mac.queue packetPopped:vector(packetBytes) ETV
attr interpolationmode none
attr title "packet popped, vector(packetBytes)"
vector 85 KFatTreeNew.hosts.coordinator.eth[0].mac.queue queueingTime:vector ETV
attr interpolationmode none
attr source queueingTime(packetPopped)
attr title "queueing times, vector"
attr unit s
vector 86 KFatTreeNew.pod[0].edgeSwitch[1].eth[0].mac rxPkOk:vector(packetBytes) ETV
attr interpolationmode none
attr source rxPkOk
attr title "packets received OK, vector(packetBytes)"
vector 87 KFatTreeNew.pod[0].edgeSwitch[1].eth[0].mac passedUpPk:vector(packetBytes) ETV
attr interpolationmode none
attr source packetSentToUpper
attr title "packets passed to higher layer, vector(packetBytes)"
vector 88 KFatTreeNew.hosts.coordinator.eth[0].mac txPk:vector(packetBytes) ETV
attr interpolationmode none
attr source packetSentToLower
attr title "packets transmitted, vector(packetBytes)"
vector 89 KFatTreeNew.pod[0].edgeSwitch[1].eth[0].encap decapPk:vector(packetBytes) ETV
attr interpolationmode none
attr source decapPk
attr title "packets decapsulated, vector(packetBytes)"
vector 90 KFatTreeNew.hosts.coordinator.udp packetReceived:vector(packetBytes) ETV
attr interpolationmode none
attr source packetReceived
attr title "packets received, vector(packetBytes)"
vector 91 KFatTreeNew.hosts.coordinator.udp passedUpPk:vector(count) ETV
attr interpolationmode none
attr source packetSentToUpper
attr title "packets passed up, vector(count)"
vector 92 KFatTreeNew.hosts.coordinator.app[0] packetReceived:vector(packetBytes) ETV
attr interpolationmode none
attr source packetReceived
attr title "packets received, vector(packetBytes)"
vector 93 KFatTreeNew.hosts.coordinator.app[0] throughput:vector ETV
attr source throughput(packetReceived)
attr title "throughput, vector"
attr unit bps
vector 94 KFatTreeNew.hosts.coordinator.app[0] endToEndDelay:vector ETV
attr interpolationmode none
attr source dataAge(packetReceived)
attr title "end-to-end delay, vector"
attr unit s
vector 95 KFatTreeNew.hosts.coordinator.app[0] rcvdPkSeqNo:vector ETV
attr interpolationmode none
attr source appPkSeqNo(packetReceived)
attr title "received packet sequence number, vector"
vector 96 KFatTreeNew.hosts.coordinator.udp packetSent:vector(packetBytes) ETV
attr interpolationmode none
attr source packetSent
attr title "packets sent, vector(packetBytes)"
vector 97 KFatTreeNew.pod[0].edgeSwitch[0].eth[1].encap encapPk:vector(packetBytes) ETV
attr interpolationmode none
attr source encapPk
attr title "packets encapsulated, vector(packetBytes)"
vector 98 KFatTreeNew.pod[0].edgeSwitch[0].eth[1].mac packetReceivedFromUpper:vector(packetBytes) ETV
attr interpolationmode none
attr source packetReceivedFromUpper
attr title "packet bytes from higher layer, vector(packetBytes)"
vector 99 KFatTreeNew.pod[0].edgeSwitch[0].eth[1].mac.queue packetPushed:vector(packetBytes) ETV
attr interpolationmode none
attr title "packet pushed, vector(packetBytes)"
vector 100 KFatTreeNew.pod[0].edgeSwitch[0].eth[1].mac.queue queueLength:vector ETV
attr interpolationmode sample-hold
attr source "count(packetPushed) - count(packetPopped) - count(packetRemoved) - count(packetDropped)"
attr title "queue length, vector"
vector 101 KFatTreeNew.pod[0].edgeSwitch[0].eth[1].mac.queue packetPopped:vector(packetBytes) ETV
attr interpolationmode none
attr title "packet popped, vector(packetBytes)"
vector 102 KFatTreeNew.pod[0].edgeSwitch[0].eth[1].mac.queue queueingTime:vector ETV
attr interpolationmode none
attr source queueingTime(packetPopped)
attr title "queueing times, vector"
attr unit s
vector 103 KFatTreeNew.hosts.replica[0].eth[0].mac rxPkOk:vector(packetBytes) ETV
attr interpolationmode none
attr source rxPkOk
attr title "packets received OK, vector(packetBytes)"
vector 104 KFatTreeNew.hosts.replica[0].eth[0].mac passedUpPk:vector(packetBytes) ETV
attr interpolationmode none
attr source packetSentToUpper
attr title "packets passed to higher layer, vector(packetBytes)"
vector 105 KFatTreeNew.pod[0].edgeSwitch[0].eth[1].mac txPk:vector(packetBytes) ETV
attr interpolationmode none
attr source packetSentToLower
attr title "packets transmitted, vector(packetBytes)"
vector 106 KFatTreeNew.hosts.replica[0].eth[0].encap decapPk:vector(packetBytes) ETV
attr interpolationmode none
attr source decapPk
attr title "packets decapsulated, vector(packetBytes)"
vector 107 KFatTreeNew.hosts.replica[0].ipv4.arp arpReplySent:vector(packetBytes) ETV
attr source arpReplySent
attr title "ARP replies sent, vector(packetBytes)"
vector 108 KFatTreeNew.hosts.replica[0].eth[0].encap encapPk:vector(packetBytes) ETV
attr interpolationmode none
attr source encapPk
attr title "packets encapsulated, vector(packetBytes)"
vector 109 KFatTreeNew.hosts.replica[0].eth[0].mac packetReceivedFromUpper:vector(packetBytes) ETV
attr interpolationmode none
attr source packetReceivedFromUpper
attr title "packet bytes from higher layer, vector(packetBytes)"
vector 110 KFatTreeNew.hosts.replica[0].eth[0].mac.queue packetPushed:vector(packetBytes) ETV
attr interpolationmode none
attr title "packet pushed, vector(packetBytes)"
vector 111 KFatTreeNew.hosts.replica[0].eth[0].mac.queue queueLength:vector ETV
attr interpolationmode sample-hold
attr source "count(packetPushed) - count(packetPopped) - count(packetRemoved) - count(packetDropped)"
attr title "queue length, vector"
vector 112 KFatTreeNew.hosts.replica[0].eth[0].mac.queue packetPopped:vector(packetBytes) ETV
attr interpolationmode none
attr title "packet popped, vector(packetBytes)"
vector 113 KFatTreeNew.hosts.replica[0].eth[0].mac.queue queueingTime:vector ETV
attr interpolationmode none
attr source queueingTime(packetPopped)
attr title "queueing times, vector"
attr unit s
vector 114 KFatTreeNew.pod[0].edgeSwitch[0].eth[1].mac rxPkOk:vector(packetBytes) ETV
attr interpolationmode none
attr source rxPkOk
attr title "packets received OK, vector(packetBytes)"
vector 115 KFatTreeNew.pod[0].edgeSwitch[0].eth[1].mac passedUpPk:vector(packetBytes) ETV
attr interpolationmode none
attr source packetSentToUpper
attr title "packets passed to higher layer, vector(packetBytes)"
vector 116 KFatTreeNew.hosts.replica[0].eth[0].mac txPk:vector(packetBytes) ETV
attr interpolationmode none
attr source packetSentToLower
attr title "packets transmitted, vector(packetBytes)"
vector 117 KFatTreeNew.pod[0].edgeSwitch[0].eth[1].encap decapPk:vector(packetBytes) ETV
attr interpolationmode none
attr source decapPk
attr title "packets decapsulated, vector(packetBytes)"
vector 118 KFatTreeNew.pod[0].edgeSwitch[1].eth[1].encap encapPk:vector(packetBytes) ETV
attr interpolationmode none
attr source encapPk
attr title "packets encapsulated, vector(packetBytes)"
vector 119 KFatTreeNew.pod[0].edgeSwitch[1].eth[1].mac packetReceivedFromUpper:vector(packetBytes) ETV
attr interpolationmode none
attr source packetReceivedFromUpper
attr title "packet bytes from higher layer, vector(packetBytes)"
vector 120 KFatTreeNew.pod[0].edgeSwitch[1].eth[1].mac.queue packetPushed:vector(packetBytes) ETV
attr interpolationmode none
attr title "packet pushed, vector(packetBytes)"
vector 121 KFatTreeNew.pod[0].edgeSwitch[1].eth[1].mac.queue queueLength:vector ETV
attr interpolationmode sample-hold
attr source "count(packetPushed) - count(packetPopped) - count(packetRemoved) - count(packetDropped)"
attr title "queue length, vector"
vector 122 KFatTreeNew.pod[0].edgeSwitch[1].eth[1].mac.queue packetPopped:vector(packetBytes) ETV
attr interpolationmode none
attr title "packet popped, vector(packetBytes)"
vector 123 KFatTreeNew.pod[0].edgeSwitch[1].eth[1].mac.queue queueingTime:vector ETV
attr interpolationmode none
attr source queueingTime(packetPopped)
attr title "queueing times, vector"
attr unit s
vector 124 KFatTreeNew.hosts.replica[1].eth[0].mac rxPkOk:vector(packetBytes) ETV
attr interpolationmode none
attr source rxPkOk
attr title "packets received OK, vector(packetBytes)"
vector 125 KFatTreeNew.hosts.replica[1].eth[0].mac passedUpPk:vector(packetBytes) ETV
attr interpolationmode none
attr source packetSentToUpper
attr title "packets passed to higher layer, vector(packetBytes)"
vector 126 KFatTreeNew.pod[0].edgeSwitch[1].eth[1].mac txPk:vector(packetBytes) ETV
attr interpolationmode none
attr source packetSentToLower
attr title "packets transmitted, vector(packetBytes)"
vector 127 KFatTreeNew.hosts.replica[1].eth[0].encap decapPk:vector(packetBytes) ETV
attr interpolationmode none
attr source decapPk
attr title "packets decapsulated, vector(packetBytes)"
vector 128 KFatTreeNew.hosts.replica[1].ipv4.arp arpReplySent:vector(packetBytes) ETV
attr source arpReplySent
attr title "ARP replies sent, vector(packetBytes)"
vector 129 KFatTreeNew.hosts.replica[1].eth[0].encap encapPk:vector(packetBytes) ETV
attr interpolationmode none
attr source encapPk
attr title "packets encapsulated, vector(packetBytes)"
vector 130 KFatTreeNew.hosts.replica[1].eth[0].mac packetReceivedFromUpper:vector(packetBytes) ETV
attr interpolationmode none
attr source packetReceivedFromUpper
attr title "packet bytes from higher layer, vector(packetBytes)"
vector 131 KFatTreeNew.hosts.replica[1].eth[0].mac.queue packetPushed:vector(packetBytes) ETV
attr interpolationmode none
attr title "packet pushed, vector(packetBytes)"
vector 132 KFatTreeNew.hosts.replica[1].eth[0].mac.queue queueLength:vector ETV
attr interpolationmode sample-hold
attr source "count(packetPushed) - count(packetPopped) - count(packetRemoved) - count(packetDropped)"
attr title "queue length, vector"
vector 133 KFatTreeNew.hosts.replica[1].eth[0].mac.queue packetPopped:vector(packetBytes) ETV
attr interpolationmode none
attr title "packet popped, vector(packetBytes)"
vector 134 KFatTreeNew.hosts.replica[1].eth[0].mac.queue queueingTime:vector ETV
attr interpolationmode none
attr source queueingTime(packetPopped)
attr title "queueing times, vector"
attr unit s
vector 135 KFatTreeNew.pod[0].edgeSwitch[1].eth[1].mac rxPkOk:vector(packetBytes) ETV
attr interpolationmode none
attr source rxPkOk
attr title "packets received OK, vector(packetBytes)"
vector 136 KFatTreeNew.pod[0].edgeSwitch[1].eth[1].mac passedUpPk:vector(packetBytes) ETV
attr interpolationmode none
attr source packetSentToUpper
attr title "packets passed to higher layer, vector(packetBytes)"
vector 137 KFatTreeNew.hosts.replica[1].eth[0].mac txPk:vector(packetBytes) ETV
attr interpolationmode none
attr source packetSentToLower
attr title "packets transmitted, vector(packetBytes)"
vector 138 KFatTreeNew.pod[0].edgeSwitch[1].eth[1].encap decapPk:vector(packetBytes) ETV
attr interpolationmode none
attr source decapPk
attr title "packets decapsulated, vector(packetBytes)"
vector 139 KFatTreeNew.hosts.replica[0].udp packetReceived:vector(packetBytes) ETV
attr interpolationmode none
attr source packetReceived
attr title "packets received, vector(packetBytes)"
vector 140 KFatTreeNew.hosts.replica[0].udp passedUpPk:vector(count) ETV
attr interpolationmode none
attr source packetSentToUpper
attr title "packets passed up, vector(count)"
vector 141 KFatTreeNew.hosts.replica[0].app[0] packetReceived:vector(packetBytes) ETV
attr interpolationmode none
attr source packetReceived
attr title "packets received, vector(packetBytes)"
vector 142 KFatTreeNew.hosts.replica[0].app[0] throughput:vector ETV
attr source throughput(packetReceived)
attr title "throughput, vector"
attr unit bps
vector 143 KFatTreeNew.hosts.replica[0].app[0] endToEndDelay:vector ETV
attr interpolationmode none
attr source dataAge(packetReceived)
attr title "end-to-end delay, vector"
attr unit s
vector 144 KFatTreeNew.hosts.replica[0].app[0] rcvdPkSeqNo:vector ETV
attr interpolationmode none
attr source appPkSeqNo(packetReceived)
attr title "received packet sequence number, vector"
vector 145 KFatTreeNew.hosts.replica[0].udp packetSent:vector(packetBytes) ETV
attr interpolationmode none
attr source packetSent
attr title "packets sent, vector(packetBytes)"
vector 146 KFatTreeNew.pod[0].aggregateSwitch[0].eth[0].encap encapPk:vector(packetBytes) ETV
attr interpolationmode none
attr source encapPk
attr title "packets encapsulated, vector(packetBytes)"
vector 147 KFatTreeNew.pod[0].aggregateSwitch[0].eth[0].mac packetReceivedFromUpper:vector(packetBytes) ETV
attr interpolationmode none
attr source packetReceivedFromUpper
attr title "packet bytes from higher layer, vector(packetBytes)"
vector 148 KFatTreeNew.pod[0].aggregateSwitch[0].eth[0].mac.queue packetPushed:vector(packetBytes) ETV
attr interpolationmode none
attr title "packet pushed, vector(packetBytes)"
vector 149 KFatTreeNew.pod[0].aggregateSwitch[0].eth[0].mac.queue queueLength:vector ETV
attr interpolationmode sample-hold
attr source "count(packetPushed) - count(packetPopped) - count(packetRemoved) - count(packetDropped)"
attr title "queue length, vector"
vector 150 KFatTreeNew.pod[0].aggregateSwitch[0].eth[0].mac.queue packetPopped:vector(packetBytes) ETV
attr interpolationmode none
attr title "packet popped, vector(packetBytes)"
vector 151 KFatTreeNew.pod[0].aggregateSwitch[0].eth[0].mac.queue queueingTime:vector ETV
attr interpolationmode none
attr source queueingTime(packetPopped)
attr title "queueing times, vector"
attr unit s
vector 152 KFatTreeNew.hosts.replica[1].udp packetReceived:vector(packetBytes) ETV
attr interpolationmode none
attr source packetReceived
attr title "packets received, vector(packetBytes)"
vector 153 KFatTreeNew.hosts.replica[1].udp passedUpPk:vector(count) ETV
attr interpolationmode none
attr source packetSentToUpper
attr title "packets passed up, vector(count)"
vector 154 KFatTreeNew.hosts.replica[1].app[0] packetReceived:vector(packetBytes) ETV
attr interpolationmode none
attr source packetReceived
attr title "packets received, vector(packetBytes)"
vector 155 KFatTreeNew.hosts.replica[1].app[0] throughput:vector ETV
attr source throughput(packetReceived)
attr title "throughput, vector"
attr unit bps
vector 156 KFatTreeNew.hosts.replica[1].app[0] endToEndDelay:vector ETV
attr interpolationmode none
attr source dataAge(packetReceived)
attr title "end-to-end delay, vector"
attr unit s
vector 157 KFatTreeNew.hosts.replica[1].app[0] rcvdPkSeqNo:vector ETV
attr interpolationmode none
attr source appPkSeqNo(packetReceived)
attr title "received packet sequence number, vector"
vector 158 KFatTreeNew.hosts.replica[1].udp packetSent:vector(packetBytes) ETV
attr interpolationmode none
attr source packetSent
attr title "packets sent, vector(packetBytes)"
vector 159 KFatTreeNew.coreSwitch[0].eth[0].mac rxPkOk:vector(packetBytes) ETV
attr interpolationmode none
attr source rxPkOk
attr title "packets received OK, vector(packetBytes)"
vector 160 KFatTreeNew.coreSwitch[0].eth[0].mac passedUpPk:vector(packetBytes) ETV
attr interpolationmode none
attr source packetSentToUpper
attr title "packets passed to higher layer, vector(packetBytes)"
vector 161 KFatTreeNew.pod[0].aggregateSwitch[0].eth[0].mac txPk:vector(packetBytes) ETV
attr interpolationmode none
attr source packetSentToLower
attr title "packets transmitted, vector(packetBytes)"
vector 162 KFatTreeNew.coreSwitch[0].eth[0].encap decapPk:vector(packetBytes) ETV
attr interpolationmode none
attr source decapPk
attr title "packets decapsulated, vector(packetBytes)"
vector 163 KFatTreeNew.coreSwitch[0].ipv4.arp arpReplySent:vector(packetBytes) ETV
attr source arpReplySent
attr title "ARP replies sent, vector(packetBytes)"
vector 164 KFatTreeNew.coreSwitch[0].eth[0].encap encapPk:vector(packetBytes) ETV
attr interpolationmode none
attr source encapPk
attr title "packets encapsulated, vector(packetBytes)"
vector 165 KFatTreeNew.coreSwitch[0].eth[0].mac packetReceivedFromUpper:vector(packetBytes) ETV
attr interpolationmode none
attr source packetReceivedFromUpper
attr title "packet bytes from higher layer, vector(packetBytes)"
vector 166 KFatTreeNew.coreSwitch[0].eth[0].mac.queue packetPushed:vector(packetBytes) ETV
attr interpolationmode none
attr title "packet pushed, vector(packetBytes)"
vector 167 KFatTreeNew.coreSwitch[0].eth[0].mac.queue queueLength:vector ETV
attr interpolationmode sample-hold
attr source "count(packetPushed) - count(packetPopped) - count(packetRemoved) - count(packetDropped)"
attr title "queue length, vector"
vector 168 KFatTreeNew.coreSwitch[0].eth[0].mac.queue packetPopped:vector(packetBytes) ETV
attr interpolationmode none
attr title "packet popped, vector(packetBytes)"
vector 169 KFatTreeNew.coreSwitch[0].eth[0].mac.queue queueingTime:vector ETV
attr interpolationmode none
attr source queueingTime(packetPopped)
attr title "queueing times, vector"
attr unit s
vector 170 KFatTreeNew.pod[0].aggregateSwitch[0].eth[0].mac rxPkOk:vector(packetBytes) ETV
attr interpolationmode none
attr source rxPkOk
attr title "packets received OK, vector(packetBytes)"
vector 171 KFatTreeNew.pod[0].aggregateSwitch[0].eth[0].mac passedUpPk:vector(packetBytes) ETV
attr interpolationmode none
attr source packetSentToUpper
attr title "packets passed to higher layer, vector(packetBytes)"
vector 172 KFatTreeNew.coreSwitch[0].eth[0].mac txPk:vector(packetBytes) ETV
attr interpolationmode none
attr source packetSentToLower
attr title "packets transmitted, vector(packetBytes)"
vector 173 KFatTreeNew.pod[0].aggregateSwitch[0].eth[0].encap decapPk:vector(packetBytes) ETV
attr interpolationmode none
attr source decapPk
attr title "packets decapsulated, vector(packetBytes)"
vector 174 KFatTreeNew.coreSwitch[0].ipv4.arp arpRequestSent:vector(packetBytes) ETV
attr source arpRequestSent
attr title "ARP request sent, vector(packetBytes)"
vector 175 KFatTreeNew.coreSwitch[0].eth[1].encap encapPk:vector(packetBytes) ETV
attr interpolationmode none
attr source encapPk
attr title "packets encapsulated, vector(packetBytes)"
vector 176 KFatTreeNew.coreSwitch[0].eth[1].mac packetReceivedFromUpper:vector(packetBytes) ETV
attr interpolationmode none
attr source packetReceivedFromUpper
attr title "packet bytes from higher layer, vector(packetBytes)"
vector 177 KFatTreeNew.coreSwitch[0].eth[1].mac.queue packetPushed:vector(packetBytes) ETV
attr interpolationmode none
attr title "packet pushed, vector(packetBytes)"
vector 178 KFatTreeNew.coreSwitch[0].eth[1].mac.queue queueLength:vector ETV
attr interpolationmode sample-hold
attr source "count(packetPushed) - count(packetPopped) - count(packetRemoved) - count(packetDropped)"
attr title "queue length, vector"
vector 179 KFatTreeNew.coreSwitch[0].eth[1].mac.queue packetPopped:vector(packetBytes) ETV
attr interpolationmode none
attr title "packet popped, vector(packetBytes)"
vector 180 KFatTreeNew.coreSwitch[0].eth[1].mac.queue queueingTime:vector ETV
attr interpolationmode none
attr source queueingTime(packetPopped)
attr title "queueing times, vector"
attr unit s
vector 181 KFatTreeNew.pod[1].aggregateSwitch[0].eth[0].mac rxPkOk:vector(packetBytes) ETV
attr interpolationmode none
attr source rxPkOk
attr title "packets received OK, vector(packetBytes)"
vector 182 KFatTreeNew.pod[1].aggregateSwitch[0].eth[0].mac passedUpPk:vector(packetBytes) ETV
attr interpolationmode none
attr source packetSentToUpper
attr title "packets passed to higher layer, vector(packetBytes)"
vector 183 KFatTreeNew.coreSwitch[0].eth[1].mac txPk:vector(packetBytes) ETV
attr interpolationmode none
attr source packetSentToLower
attr title "packets transmitted, vector(packetBytes)"
vector 184 KFatTreeNew.pod[1].aggregateSwitch[0].eth[0].encap decapPk:vector(packetBytes) ETV
attr interpolationmode none
attr source decapPk
attr title "packets decapsulated, vector(packetBytes)"
vector 185 KFatTreeNew.pod[1].aggregateSwitch[0].ipv4.arp arpReplySent:vector(packetBytes) ETV
attr source arpReplySent
attr title "ARP replies sent, vector(packetBytes)"
vector 186 KFatTreeNew.pod[1].aggregateSwitch[0].eth[0].encap encapPk:vector(packetBytes) ETV
attr interpolationmode none
attr source encapPk
attr title "packets encapsulated, vector(packetBytes)"
vector 187 KFatTreeNew.pod[1].aggregateSwitch[0].eth[0].mac packetReceivedFromUpper:vector(packetBytes) ETV
attr interpolationmode none
attr source packetReceivedFromUpper
attr title "packet bytes from higher layer, vector(packetBytes)"
vector 188 KFatTreeNew.pod[1].aggregateSwitch[0].eth[0].mac.queue packetPushed:vector(packetBytes) ETV
attr interpolationmode none
attr title "packet pushed, vector(packetBytes)"
vector 189 KFatTreeNew.pod[1].aggregateSwitch[0].eth[0].mac.queue queueLength:vector ETV
attr interpolationmode sample-hold
attr source "count(packetPushed) - count(packetPopped) - count(packetRemoved) - count(packetDropped)"
attr title "queue length, vector"
vector 190 KFatTreeNew.pod[1].aggregateSwitch[0].eth[0].mac.queue packetPopped:vector(packetBytes) ETV
attr interpolationmode none
attr title "packet popped, vector(packetBytes)"
vector 191 KFatTreeNew.pod[1].aggregateSwitch[0].eth[0].mac.queue queueingTime:vector ETV
attr interpolationmode none
attr source queueingTime(packetPopped)
attr title "queueing times, vector"
attr unit s
vector 192 KFatTreeNew.coreSwitch[0].eth[1].mac rxPkOk:vector(packetBytes) ETV
attr interpolationmode none
attr source rxPkOk
attr title "packets received OK, vector(packetBytes)"
vector 193 KFatTreeNew.coreSwitch[0].eth[1].mac passedUpPk:vector(packetBytes) ETV
attr interpolationmode none
attr source packetSentToUpper
attr title "packets passed to higher layer, vector(packetBytes)"
vector 194 KFatTreeNew.pod[1].aggregateSwitch[0].eth[0].mac txPk:vector(packetBytes) ETV
attr interpolationmode none
attr source packetSentToLower
attr title "packets transmitted, vector(packetBytes)"
vector 195 KFatTreeNew.coreSwitch[0].eth[1].encap decapPk:vector(packetBytes) ETV
attr interpolationmode none
attr source decapPk
attr title "packets decapsulated, vector(packetBytes)"
vector 196 KFatTreeNew.pod[1].aggregateSwitch[0].ipv4.arp arpRequestSent:vector(packetBytes) ETV
attr source arpRequestSent
attr title "ARP request sent, vector(packetBytes)"
vector 197 KFatTreeNew.pod[1].aggregateSwitch[0].eth[2].encap encapPk:vector(packetBytes) ETV
attr interpolationmode none
attr source encapPk
attr title "packets encapsulated, vector(packetBytes)"
vector 198 KFatTreeNew.pod[1].aggregateSwitch[0].eth[2].mac packetReceivedFromUpper:vector(packetBytes) ETV
attr interpolationmode none
attr source packetReceivedFromUpper
attr title "packet bytes from higher layer, vector(packetBytes)"
vector 199 KFatTreeNew.pod[1].aggregateSwitch[0].eth[2].mac.queue packetPushed:vector(packetBytes) ETV
attr interpolationmode none
attr title "packet pushed, vector(packetBytes)"
vector 200 KFatTreeNew.pod[1].aggregateSwitch[0].eth[2].mac.queue queueLength:vector ETV
attr interpolationmode sample-hold
attr source "count(packetPushed) - count(packetPopped) - count(packetRemoved) - count(packetDropped)"
attr title "queue length, vector"
vector 201 KFatTreeNew.pod[1].aggregateSwitch[0].eth[2].mac.queue packetPopped:vector(packetBytes) ETV
attr interpolationmode none
attr title "packet popped, vector(packetBytes)"
vector 202 KFatTreeNew.pod[1].aggregateSwitch[0].eth[2].mac.queue queueingTime:vector ETV
attr interpolationmode none
attr source queueingTime(packetPopped)
attr title "queueing times, vector"
attr unit s
vector 203 KFatTreeNew.pod[1].edgeSwitch[0].eth[2].mac rxPkOk:vector(packetBytes) ETV
attr interpolationmode none
attr source rxPkOk
attr title "packets received OK, vector(packetBytes)"
vector 204 KFatTreeNew.pod[1].edgeSwitch[0].eth[2].mac passedUpPk:vector(packetBytes) ETV
attr interpolationmode none
attr source packetSentToUpper
attr title "packets passed to higher layer, vector(packetBytes)"
vector 205 KFatTreeNew.pod[1].aggregateSwitch[0].eth[2].mac txPk:vector(packetBytes) ETV
attr interpolationmode none
attr source packetSentToLower
attr title "packets transmitted, vector(packetBytes)"
vector 206 KFatTreeNew.pod[1].edgeSwitch[0].eth[2].encap decapPk:vector(packetBytes) ETV
attr interpolationmode none
attr source decapPk
attr title "packets decapsulated, vector(packetBytes)"
vector 207 KFatTreeNew.pod[1].edgeSwitch[0].ipv4.arp arpReplySent:vector(packetBytes) ETV
attr source arpReplySent
attr title "ARP replies sent, vector(packetBytes)"
vector 208 KFatTreeNew.pod[1].edgeSwitch[0].eth[2].encap encapPk:vector(packetBytes) ETV
attr interpolationmode none
attr source encapPk
attr title "packets encapsulated, vector(packetBytes)"
vector 209 KFatTreeNew.pod[1].edgeSwitch[0].eth[2].mac packetReceivedFromUpper:vector(packetBytes) ETV
attr interpolationmode none
attr source packetReceivedFromUpper
attr title "packet bytes from higher layer, vector(packetBytes)"
vector 210 KFatTreeNew.pod[1].edgeSwitch[0].eth[2].mac.queue packetPushed:vector(packetBytes) ETV
attr interpolationmode none
attr title "packet pushed, vector(packetBytes)"
vector 211 KFatTreeNew.pod[1].edgeSwitch[0].eth[2].mac.queue queueLength:vector ETV
attr interpolationmode sample-hold
attr source "count(packetPushed) - count(packetPopped) - count(packetRemoved) - count(packetDropped)"
attr title "queue length, vector"
vector 212 KFatTreeNew.pod[1].edgeSwitch[0].eth[2].mac.queue packetPopped:vector(packetBytes) ETV
attr interpolationmode none
attr title "packet popped, vector(packetBytes)"
vector 213 KFatTreeNew.pod[1].edgeSwitch[0].eth[2].mac.queue queueingTime:vector ETV
attr interpolationmode none
attr source queueingTime(packetPopped)
attr title "queueing times, vector"
attr unit s
vector 214 KFatTreeNew.pod[1].aggregateSwitch[0].eth[2].mac rxPkOk:vector(packetBytes) ETV
attr interpolationmode none
attr source rxPkOk
attr title "packets received OK, vector(packetBytes)"
vector 215 KFatTreeNew.pod[1].aggregateSwitch[0].eth[2].mac passedUpPk:vector(packetBytes) ETV
attr interpolationmode none
attr source packetSentToUpper
attr title "packets passed to higher layer, vector(packetBytes)"
vector 216 KFatTreeNew.pod[1].edgeSwitch[0].eth[2].mac txPk:vector(packetBytes) ETV
attr interpolationmode none
attr source packetSentToLower
attr title "packets transmitted, vector(packetBytes)"
vector 217 KFatTreeNew.pod[1].aggregateSwitch[0].eth[2].encap decapPk:vector(packetBytes) ETV
attr interpolationmode none
attr source decapPk
attr title "packets decapsulated, vector(packetBytes)"
vector 218 KFatTreeNew.pod[1].edgeSwitch[0].ipv4.arp arpRequestSent:vector(packetBytes) ETV
attr source arpRequestSent
attr title "ARP request sent, vector(packetBytes)"
vector 219 KFatTreeNew.pod[1].edgeSwitch[0].eth[0].encap encapPk:vector(packetBytes) ETV
attr interpolationmode none
attr source encapPk
attr title "packets encapsulated, vector(packetBytes)"
vector 220 KFatTreeNew.pod[1].edgeSwitch[0].eth[0].mac packetReceivedFromUpper:vector(packetBytes) ETV
attr interpolationmode none
attr source packetReceivedFromUpper
attr title "packet bytes from higher layer, vector(packetBytes)"
vector 221 KFatTreeNew.pod[1].edgeSwitch[0].eth[0].mac.queue packetPushed:vector(packetBytes) ETV
attr interpolationmode none
attr title "packet pushed, vector(packetBytes)"
vector 222 KFatTreeNew.pod[1].edgeSwitch[0].eth[0].mac.queue queueLength:vector ETV
attr interpolationmode sample-hold
attr source "count(packetPushed) - count(packetPopped) - count(packetRemoved) - count(packetDropped)"
attr title "queue length, vector"
vector 223 KFatTreeNew.pod[1].edgeSwitch[0].eth[0].mac.queue packetPopped:vector(packetBytes) ETV
attr interpolationmode none
attr title "packet popped, vector(packetBytes)"
vector 224 KFatTreeNew.pod[1].edgeSwitch[0].eth[0].mac.queue queueingTime:vector ETV
attr interpolationmode none
attr source queueingTime(packetPopped)
attr title "queueing times, vector"
attr unit s
vector 225 KFatTreeNew.hosts.replica[2].eth[0].mac rxPkOk:vector(packetBytes) ETV
attr interpolationmode none
attr source rxPkOk
attr title "packets received OK, vector(packetBytes)"
vector 226 KFatTreeNew.hosts.replica[2].eth[0].mac passedUpPk:vector(packetBytes) ETV
attr interpolationmode none
attr source packetSentToUpper
attr title "packets passed to higher layer, vector(packetBytes)"
vector 227 KFatTreeNew.pod[1].edgeSwitch[0].eth[0].mac txPk:vector(packetBytes) ETV
attr interpolationmode none
attr source packetSentToLower
attr title "packets transmitted, vector(packetBytes)"
vector 228 KFatTreeNew.hosts.replica[2].eth[0].encap decapPk:vector(packetBytes) ETV
attr interpolationmode none
attr source decapPk
attr title "packets decapsulated, vector(packetBytes)"
vector 229 KFatTreeNew.hosts.replica[2].ipv4.arp arpReplySent:vector(packetBytes) ETV
attr source arpReplySent
attr title "ARP replies sent, vector(packetBytes)"
vector 230 KFatTreeNew.hosts.replica[2].eth[0].encap encapPk:vector(packetBytes) ETV
attr interpolationmode none
attr source encapPk
attr title "packets encapsulated, vector(packetBytes)"
vector 231 KFatTreeNew.hosts.replica[2].eth[0].mac packetReceivedFromUpper:vector(packetBytes) ETV
attr interpolationmode none
attr source packetReceivedFromUpper
attr title "packet bytes from higher layer, vector(packetBytes)"
vector 232 KFatTreeNew.hosts.replica[2].eth[0].mac.queue packetPushed:vector(packetBytes) ETV
attr interpolationmode none
attr title "packet pushed, vector(packetBytes)"
vector 233 KFatTreeNew.hosts.replica[2].eth[0].mac.queue queueLength:vector ETV
attr interpolationmode sample-hold
attr source "count(packetPushed) - count(packetPopped) - count(packetRemoved) - count(packetDropped)"
attr title "queue length, vector"
vector 234 KFatTreeNew.hosts.replica[2].eth[0].mac.queue packetPopped:vector(packetBytes) ETV
attr interpolationmode none
attr title "packet popped, vector(packetBytes)"
vector 235 KFatTreeNew.hosts.replica[2].eth[0].mac.queue queueingTime:vector ETV
attr interpolationmode none
attr source queueingTime(packetPopped)
attr title "queueing times, vector"
attr unit s
vector 236 KFatTreeNew.pod[1].edgeSwitch[0].eth[0].mac rxPkOk:vector(packetBytes) ETV
attr interpolationmode none
attr source rxPkOk
attr title "packets received OK, vector(packetBytes)"
vector 237 KFatTreeNew.pod[1].edgeSwitch[0].eth[0].mac passedUpPk:vector(packetBytes) ETV
attr interpolationmode none
attr source packetSentToUpper
attr title "packets passed to higher layer, vector(packetBytes)"
vector 238 KFatTreeNew.hosts.replica[2].eth[0].mac txPk:vector(packetBytes) ETV
attr interpolationmode none
attr source packetSentToLower
attr title "packets transmitted, vector(packetBytes)"
vector 239 KFatTreeNew.pod[1].edgeSwitch[0].eth[0].encap decapPk:vector(packetBytes) ETV
attr interpolationmode none
attr source decapPk
attr title "packets decapsulated, vector(packetBytes)"
vector 240 KFatTreeNew.pod[1].aggregateSwitch[0].eth[3].encap encapPk:vector(packetBytes) ETV
attr interpolationmode none
attr source encapPk
attr title "packets encapsulated, vector(packetBytes)"
vector 241 KFatTreeNew.pod[1].aggregateSwitch[0].eth[3].mac packetReceivedFromUpper:vector(packetBytes) ETV
attr interpolationmode none
attr source packetReceivedFromUpper
attr title "packet bytes from higher layer, vector(packetBytes)"
vector 242 KFatTreeNew.pod[1].aggregateSwitch[0].eth[3].mac.queue packetPushed:vector(packetBytes) ETV
attr interpolationmode none
attr title "packet pushed, vector(packetBytes)"
vector 243 KFatTreeNew.pod[1].aggregateSwitch[0].eth[3].mac.queue queueLength:vector ETV
attr interpolationmode sample-hold
attr source "count(packetPushed) - count(packetPopped) - count(packetRemoved) - count(packetDropped)"
attr title "queue length, vector"
vector 244 KFatTreeNew.pod[1].aggregateSwitch[0].eth[3].mac.queue packetPopped:vector(packetBytes) ETV
attr interpolationmode none
attr title "packet popped, vector(packetBytes)"
vector 245 KFatTreeNew.pod[1].aggregateSwitch[0].eth[3].mac.queue queueingTime:vector ETV
attr interpolationmode none
attr source queueingTime(packetPopped)
attr title "queueing times, vector"
attr unit s
vector 246 KFatTreeNew.pod[1].edgeSwitch[1].eth[2].mac rxPkOk:vector(packetBytes) ETV
attr interpolationmode none
attr source rxPkOk
attr title "packets received OK, vector(packetBytes)"
vector 247 KFatTreeNew.pod[1].edgeSwitch[1].eth[2].mac passedUpPk:vector(packetBytes) ETV
attr interpolationmode none
attr source packetSentToUpper
attr title "packets passed to higher layer, vector(packetBytes)"
vector 248 KFatTreeNew.pod[1].aggregateSwitch[0].eth[3].mac txPk:vector(packetBytes) ETV
attr interpolationmode none
attr source packetSentToLower
attr title "packets transmitted, vector(packetBytes)"
vector 249 KFatTreeNew.pod[1].edgeSwitch[1].eth[2].encap decapPk:vector(packetBytes) ETV
attr interpolationmode none
attr source decapPk
attr title "packets decapsulated, vector(packetBytes)"
vector 250 KFatTreeNew.pod[1].edgeSwitch[1].ipv4.arp arpReplySent:vector(packetBytes) ETV
attr source arpReplySent
attr title "ARP replies sent, vector(packetBytes)"
vector 251 KFatTreeNew.pod[1].edgeSwitch[1].eth[2].encap encapPk:vector(packetBytes) ETV
attr interpolationmode none
attr source encapPk
attr title "packets encapsulated, vector(packetBytes)"
vector 252 KFatTreeNew.pod[1].edgeSwitch[1].eth[2].mac packetReceivedFromUpper:vector(packetBytes) ETV
attr interpolationmode none
attr source packetReceivedFromUpper
attr title "packet bytes from higher layer, vector(packetBytes)"
vector 253 KFatTreeNew.pod[1].edgeSwitch[1].eth[2].mac.queue packetPushed:vector(packetBytes) ETV
attr interpolationmode none
attr title "packet pushed, vector(packetBytes)"
vector 254 KFatTreeNew.pod[1].edgeSwitch[1].eth[2].mac.queue queueLength:vector ETV
attr interpolationmode sample-hold
attr source "count(packetPushed) - count(packetPopped) - count(packetRemoved) - count(packetDropped)"
attr title "queue length, vector"
vector 255 KFatTreeNew.pod[1].edgeSwitch[1].eth[2].mac.queue packetPopped:vector(packetBytes) ETV
attr interpolationmode none
attr title "packet popped, vector(packetBytes)"
vector 256 KFatTreeNew.pod[1].edgeSwitch[1].eth[2].mac.queue queueingTime:vector ETV
attr interpolationmode none
attr source queueingTime(packetPopped)
attr title "queueing times, vector"
attr unit s
vector 257 KFatTreeNew.pod[1].aggregateSwitch[0].eth[3].mac rxPkOk:vector(packetBytes) ETV
attr interpolationmode none
attr source rxPkOk
attr title "packets received OK, vector(packetBytes)"
vector 258 KFatTreeNew.pod[1].aggregateSwitch[0].eth[3].mac passedUpPk:vector(packetBytes) ETV
attr interpolationmode none
attr source packetSentToUpper
attr title "packets passed to higher layer, vector(packetBytes)"
vector 259 KFatTreeNew.pod[1].edgeSwitch[1].eth[2].mac txPk:vector(packetBytes) ETV
attr interpolationmode none
attr source packetSentToLower
attr title "packets transmitted, vector(packetBytes)"
vector 260 KFatTreeNew.pod[1].aggregateSwitch[0].eth[3].encap decapPk:vector(packetBytes) ETV
attr interpolationmode none
attr source decapPk
attr title "packets decapsulated, vector(packetBytes)"
vector 261 KFatTreeNew.pod[1].edgeSwitch[1].ipv4.arp arpRequestSent:vector(packetBytes) ETV
attr source arpRequestSent
attr title "ARP request sent, vector(packetBytes)"
vector 262 KFatTreeNew.pod[1].edgeSwitch[1].eth[0].encap encapPk:vector(packetBytes) ETV
attr interpolationmode none
attr source encapPk
attr title "packets encapsulated, vector(packetBytes)"
vector 263 KFatTreeNew.pod[1].edgeSwitch[1].eth[0].mac packetReceivedFromUpper:vector(packetBytes) ETV
attr interpolationmode none
attr source packetReceivedFromUpper
attr title "packet bytes from higher layer, vector(packetBytes)"
vector 264 KFatTreeNew.pod[1].edgeSwitch[1].eth[0].mac.queue packetPushed:vector(packetBytes) ETV
attr interpolationmode none
attr title "packet pushed, vector(packetBytes)"
vector 265 KFatTreeNew.pod[1].edgeSwitch[1].eth[0].mac.queue queueLength:vector ETV
attr interpolationmode sample-hold
attr source "count(packetPushed) - count(packetPopped) - count(packetRemoved) - count(packetDropped)"
attr title "queue length, vector"
vector 266 KFatTreeNew.pod[1].edgeSwitch[1].eth[0].mac.queue packetPopped:vector(packetBytes) ETV
attr interpolationmode none
attr title "packet popped, vector(packetBytes)"
vector 267 KFatTreeNew.pod[1].edgeSwitch[1].eth[0].mac.queue queueingTime:vector ETV
attr interpolationmode none
attr source queueingTime(packetPopped)
attr title "queueing times, vector"
attr unit s
vector 268 KFatTreeNew.hosts.replica[3].eth[0].mac rxPkOk:vector(packetBytes) ETV
attr interpolationmode none
attr source rxPkOk
attr title "packets received OK, vector(packetBytes)"
vector 269 KFatTreeNew.hosts.replica[3].eth[0].mac passedUpPk:vector(packetBytes) ETV
attr interpolationmode none
attr source packetSentToUpper
attr title "packets passed to higher layer, vector(packetBytes)"
vector 270 KFatTreeNew.pod[1].edgeSwitch[1].eth[0].mac txPk:vector(packetBytes) ETV
attr interpolationmode none
attr source packetSentToLower
attr title "packets transmitted, vector(packetBytes)"
vector 271 KFatTreeNew.hosts.replica[3].eth[0].encap decapPk:vector(packetBytes) ETV
attr interpolationmode none
attr source decapPk
attr title "packets decapsulated, vector(packetBytes)"
vector 272 KFatTreeNew.hosts.replica[3].ipv4.arp arpReplySent:vector(packetBytes) ETV
attr source arpReplySent
attr title "ARP replies sent, vector(packetBytes)"
vector 273 KFatTreeNew.hosts.replica[3].eth[0].encap encapPk:vector(packetBytes) ETV
attr interpolationmode none
attr source encapPk
attr title "packets encapsulated, vector(packetBytes)"
vector 274 KFatTreeNew.hosts.replica[3].eth[0].mac packetReceivedFromUpper:vector(packetBytes) ETV
attr interpolationmode none
attr source packetReceivedFromUpper
attr title "packet bytes from higher layer, vector(packetBytes)"
vector 275 KFatTreeNew.hosts.replica[3].eth[0].mac.queue packetPushed:vector(packetBytes) ETV
attr interpolationmode none
attr title "packet pushed, vector(packetBytes)"
vector 276 KFatTreeNew.hosts.replica[3].eth[0].mac.queue queueLength:vector ETV
attr interpolationmode sample-hold
attr source "count(packetPushed) - count(packetPopped) - count(packetRemoved) - count(packetDropped)"
attr title "queue length, vector"
vector 277 KFatTreeNew.hosts.replica[3].eth[0].mac.queue packetPopped:vector(packetBytes) ETV
attr interpolationmode none
attr title "packet popped, vector(packetBytes)"
vector 278 KFatTreeNew.hosts.replica[3].eth[0].mac.queue queueingTime:vector ETV
attr interpolationmode none
attr source queueingTime(packetPopped)
attr title "queueing times, vector"
attr unit s
vector 279 KFatTreeNew.pod[1].edgeSwitch[1].eth[0].mac rxPkOk:vector(packetBytes) ETV
attr interpolationmode none
attr source rxPkOk
attr title "packets received OK, vector(packetBytes)"
vector 280 KFatTreeNew.pod[1].edgeSwitch[1].eth[0].mac passedUpPk:vector(packetBytes) ETV
attr interpolationmode none
attr source packetSentToUpper
attr title "packets passed to higher layer, vector(packetBytes)"
vector 281 KFatTreeNew.hosts.replica[3].eth[0].mac txPk:vector(packetBytes) ETV
attr interpolationmode none
attr source packetSentToLower
attr title "packets transmitted, vector(packetBytes)"
vector 282 KFatTreeNew.pod[1].edgeSwitch[1].eth[0].encap decapPk:vector(packetBytes) ETV
attr interpolationmode none
attr source decapPk
attr title "packets decapsulated, vector(packetBytes)"
vector 283 KFatTreeNew.hosts.replica[2].udp packetReceived:vector(packetBytes) ETV
attr interpolationmode none
attr source packetReceived
attr title "packets received, vector(packetBytes)"
vector 284 KFatTreeNew.hosts.replica[2].udp passedUpPk:vector(count) ETV
attr interpolationmode none
attr source packetSentToUpper
attr title "packets passed up, vector(count)"
vector 285 KFatTreeNew.hosts.replica[2].app[0] packetReceived:vector(packetBytes) ETV
attr interpolationmode none
attr source packetReceived
attr title "packets received, vector(packetBytes)"
vector 286 KFatTreeNew.hosts.replica[2].app[0] throughput:vector ETV
attr source throughput(packetReceived)
attr title "throughput, vector"
attr unit bps
vector 287 KFatTreeNew.hosts.replica[2].app[0] endToEndDelay:vector ETV
attr interpolationmode none
attr source dataAge(packetReceived)
attr title "end-to-end delay, vector"
attr unit s
vector 288 KFatTreeNew.hosts.replica[2].app[0] rcvdPkSeqNo:vector ETV
attr interpolationmode none
attr source appPkSeqNo(packetReceived)
attr title "received packet sequence number, vector"
vector 289 KFatTreeNew.hosts.replica[2].udp packetSent:vector(packetBytes) ETV
attr interpolationmode none
attr source packetSent
attr title "packets sent, vector(packetBytes)"
vector 290 KFatTreeNew.pod[1].edgeSwitch[0].eth[1].encap encapPk:vector(packetBytes) ETV
attr interpolationmode none
attr source encapPk
attr title "packets encapsulated, vector(packetBytes)"
vector 291 KFatTreeNew.pod[1].edgeSwitch[0].eth[1].mac packetReceivedFromUpper:vector(packetBytes) ETV
attr interpolationmode none
attr source packetReceivedFromUpper
attr title "packet bytes from higher layer, vector(packetBytes)"
vector 292 KFatTreeNew.pod[1].edgeSwitch[0].eth[1].mac.queue packetPushed:vector(packetBytes) ETV
attr interpolationmode none
attr title "packet pushed, vector(packetBytes)"
vector 293 KFatTreeNew.pod[1].edgeSwitch[0].eth[1].mac.queue queueLength:vector ETV
attr interpolationmode sample-hold
attr source "count(packetPushed) - count(packetPopped) - count(packetRemoved) - count(packetDropped)"
attr title "queue length, vector"
vector 294 KFatTreeNew.pod[1].edgeSwitch[0].eth[1].mac.queue packetPopped:vector(packetBytes) ETV
attr interpolationmode none
attr title "packet popped, vector(packetBytes)"
vector 295 KFatTreeNew.pod[1].edgeSwitch[0].eth[1].mac.queue queueingTime:vector ETV
attr interpolationmode none
attr source queueingTime(packetPopped)
attr title "queueing times, vector"
attr unit s
vector 296 KFatTreeNew.hosts.replica[4].eth[0].mac rxPkOk:vector(packetBytes) ETV
attr interpolationmode none
attr source rxPkOk
attr title "packets received OK, vector(packetBytes)"
vector 297 KFatTreeNew.hosts.replica[4].eth[0].mac passedUpPk:vector(packetBytes) ETV
attr interpolationmode none
attr source packetSentToUpper
attr title "packets passed to higher layer, vector(packetBytes)"
vector 298 KFatTreeNew.pod[1].edgeSwitch[0].eth[1].mac txPk:vector(packetBytes) ETV
attr interpolationmode none
attr source packetSentToLower
attr title "packets transmitted, vector(packetBytes)"
vector 299 KFatTreeNew.hosts.replica[4].eth[0].encap decapPk:vector(packetBytes) ETV
attr interpolationmode none
attr source decapPk
attr title "packets decapsulated, vector(packetBytes)"
vector 300 KFatTreeNew.hosts.replica[4].ipv4.arp arpReplySent:vector(packetBytes) ETV
attr source arpReplySent
attr title "ARP replies sent, vector(packetBytes)"
vector 301 KFatTreeNew.hosts.replica[4].eth[0].encap encapPk:vector(packetBytes) ETV
attr interpolationmode none
attr source encapPk
attr title "packets encapsulated, vector(packetBytes)"
vector 302 KFatTreeNew.hosts.replica[4].eth[0].mac packetReceivedFromUpper:vector(packetBytes) ETV
attr interpolationmode none
attr source packetReceivedFromUpper
attr title "packet bytes from higher layer, vector(packetBytes)"
vector 303 KFatTreeNew.hosts.replica[4].eth[0].mac.queue packetPushed:vector(packetBytes) ETV
attr interpolationmode none
attr title "packet pushed, vector(packetBytes)"
vector 304 KFatTreeNew.hosts.replica[4].eth[0].mac.queue queueLength:vector ETV
attr interpolationmode sample-hold
attr source "count(packetPushed) - count(packetPopped) - count(packetRemoved) - count(packetDropped)"
attr title "queue length, vector"
vector 305 KFatTreeNew.hosts.replica[4].eth[0].mac.queue packetPopped:vector(packetBytes) ETV
attr interpolationmode none
attr title "packet popped, vector(packetBytes)"
vector 306 KFatTreeNew.hosts.replica[4].eth[0].mac.queue queueingTime:vector ETV
attr interpolationmode none
attr source queueingTime(packetPopped)
attr title "queueing times, vector"
attr unit s
vector 307 KFatTreeNew.pod[1].edgeSwitch[0].eth[1].mac rxPkOk:vector(packetBytes) ETV
attr interpolationmode none
attr source rxPkOk
attr title "packets received OK, vector(packetBytes)"
vector 308 KFatTreeNew.pod[1].edgeSwitch[0].eth[1].mac passedUpPk:vector(packetBytes) ETV
attr interpolationmode none
attr source packetSentToUpper
attr title "packets passed to higher layer, vector(packetBytes)"
vector 309 KFatTreeNew.hosts.replica[4].eth[0].mac txPk:vector(packetBytes) ETV
attr interpolationmode none
attr source packetSentToLower
attr title "packets transmitted, vector(packetBytes)"
vector 310 KFatTreeNew.pod[1].edgeSwitch[0].eth[1].encap decapPk:vector(packetBytes) ETV
attr interpolationmode none
attr source decapPk
attr title "packets decapsulated, vector(packetBytes)"
vector 311 KFatTreeNew.hosts.replica[3].udp packetReceived:vector(packetBytes) ETV
attr interpolationmode none
attr source packetReceived
attr title "packets received, vector(packetBytes)"
vector 312 KFatTreeNew.hosts.replica[3].udp passedUpPk:vector(count) ETV
attr interpolationmode none
attr source packetSentToUpper
attr title "packets passed up, vector(count)"
vector 313 KFatTreeNew.hosts.replica[3].app[0] packetReceived:vector(packetBytes) ETV
attr interpolationmode none
attr source packetReceived
attr title "packets received, vector(packetBytes)"
vector 314 KFatTreeNew.hosts.replica[3].app[0] throughput:vector ETV
attr source throughput(packetReceived)
attr title "throughput, vector"
attr unit bps
vector 315 KFatTreeNew.hosts.replica[3].app[0] endToEndDelay:vector ETV
attr interpolationmode none
attr source dataAge(packetReceived)
attr title "end-to-end delay, vector"
attr unit s
vector 316 KFatTreeNew.hosts.replica[3].app[0] rcvdPkSeqNo:vector ETV
attr interpolationmode none
attr source appPkSeqNo(packetReceived)
attr title "received packet sequence number, vector"
vector 317 KFatTreeNew.hosts.replica[3].udp packetSent:vector(packetBytes) ETV
attr interpolationmode none
attr source packetSent
attr title "packets sent, vector(packetBytes)"
vector 318 KFatTreeNew.pod[1].edgeSwitch[1].eth[1].encap encapPk:vector(packetBytes) ETV
attr interpolationmode none
attr source encapPk
attr title "packets encapsulated, vector(packetBytes)"
vector 319 KFatTreeNew.pod[1].edgeSwitch[1].eth[1].mac packetReceivedFromUpper:vector(packetBytes) ETV
attr interpolationmode none
attr source packetReceivedFromUpper
attr title "packet bytes from higher layer, vector(packetBytes)"
vector 320 KFatTreeNew.pod[1].edgeSwitch[1].eth[1].mac.queue packetPushed:vector(packetBytes) ETV
attr interpolationmode none
attr title "packet pushed, vector(packetBytes)"
vector 321 KFatTreeNew.pod[1].edgeSwitch[1].eth[1].mac.queue queueLength:vector ETV
attr interpolationmode sample-hold
attr source "count(packetPushed) - count(packetPopped) - count(packetRemoved) - count(packetDropped)"
attr title "queue length, vector"
vector 322 KFatTreeNew.pod[1].edgeSwitch[1].eth[1].mac.queue packetPopped:vector(packetBytes) ETV
attr interpolationmode none
attr title "packet popped, vector(packetBytes)"
vector 323 KFatTreeNew.pod[1].edgeSwitch[1].eth[1].mac.queue queueingTime:vector ETV
attr interpolationmode none
attr source queueingTime(packetPopped)
attr title "queueing times, vector"
attr unit s
vector 324 KFatTreeNew.hosts.replica[5].eth[0].mac rxPkOk:vector(packetBytes) ETV
attr interpolationmode none
attr source rxPkOk
attr title "packets received OK, vector(packetBytes)"
vector 325 KFatTreeNew.hosts.replica[5].eth[0].mac passedUpPk:vector(packetBytes) ETV
attr interpolationmode none
attr source packetSentToUpper
attr title "packets passed to higher layer, vector(packetBytes)"
vector 326 KFatTreeNew.pod[1].edgeSwitch[1].eth[1].mac txPk:vector(packetBytes) ETV
attr interpolationmode none
attr source packetSentToLower
attr title "packets transmitted, vector(packetBytes)"
vector 327 KFatTreeNew.hosts.replica[5].eth[0].encap decapPk:vector(packetBytes) ETV
attr interpolationmode none
attr source decapPk
attr title "packets decapsulated, vector(packetBytes)"
vector 328 KFatTreeNew.hosts.replica[5].ipv4.arp arpReplySent:vector(packetBytes) ETV
attr source arpReplySent
attr title "ARP replies sent, vector(packetBytes)"
vector 329 KFatTreeNew.hosts.replica[5].eth[0].encap encapPk:vector(packetBytes) ETV
attr interpolationmode none
attr source encapPk
attr title "packets encapsulated, vector(packetBytes)"
vector 330 KFatTreeNew.hosts.replica[5].eth[0].mac packetReceivedFromUpper:vector(packetBytes) ETV
attr interpolationmode none
attr source packetReceivedFromUpper
attr title "packet bytes from higher layer, vector(packetBytes)"
vector 331 KFatTreeNew.hosts.replica[5].eth[0].mac.queue packetPushed:vector(packetBytes) ETV
attr interpolationmode none
attr title "packet pushed, vector(packetBytes)"
vector 332 KFatTreeNew.hosts.replica[5].eth[0].mac.queue queueLength:vector ETV
attr interpolationmode sample-hold
attr source "count(packetPushed) - count(packetPopped) - count(packetRemoved) - count(packetDropped)"
attr title "queue length, vector"
vector 333 KFatTreeNew.hosts.replica[5].eth[0].mac.queue packetPopped:vector(packetBytes) ETV
attr interpolationmode none
attr title "packet popped, vector(packetBytes)"
vector 334 KFatTreeNew.hosts.replica[5].eth[0].mac.queue queueingTime:vector ETV
attr interpolationmode none
attr source queueingTime(packetPopped)
attr title "queueing times, vector"
attr unit s
vector 335 KFatTreeNew.hosts.replica[4].udp packetReceived:vector(packetBytes) ETV
attr interpolationmode none
attr source packetReceived
attr title "packets received, vector(packetBytes)"
vector 336 KFatTreeNew.hosts.replica[4].udp passedUpPk:vector(count) ETV
attr interpolationmode none
attr source packetSentToUpper
attr title "packets passed up, vector(count)"
vector 337 KFatTreeNew.hosts.replica[4].app[0] packetReceived:vector(packetBytes) ETV
attr interpolationmode none
attr source packetReceived
attr title "packets received, vector(packetBytes)"
vector 338 KFatTreeNew.hosts.replica[4].app[0] throughput:vector ETV
attr source throughput(packetReceived)
attr title "throughput, vector"
attr unit bps
vector 339 KFatTreeNew.hosts.replica[4].app[0] endToEndDelay:vector ETV
attr interpolationmode none
attr source dataAge(packetReceived)
attr title "end-to-end delay, vector"
attr unit s
vector 340 KFatTreeNew.hosts.replica[4].app[0] rcvdPkSeqNo:vector ETV
attr interpolationmode none
attr source appPkSeqNo(packetReceived)
attr title "received packet sequence number, vector"
vector 341 KFatTreeNew.hosts.replica[4].udp packetSent:vector(packetBytes) ETV
attr interpolationmode none
attr source packetSent
attr title "packets sent, vector(packetBytes)"
vector 342 KFatTreeNew.pod[1].edgeSwitch[1].eth[1].mac rxPkOk:vector(packetBytes) ETV
attr interpolationmode none
attr source rxPkOk
attr title "packets received OK, vector(packetBytes)"
vector 343 KFatTreeNew.pod[1].edgeSwitch[1].eth[1].mac passedUpPk:vector(packetBytes) ETV
attr interpolationmode none
attr source packetSentToUpper
attr title "packets passed to higher layer, vector(packetBytes)"
vector 344 KFatTreeNew.hosts.replica[5].eth[0].mac txPk:vector(packetBytes) ETV
attr interpolationmode none
attr source packetSentToLower
attr title "packets transmitted, vector(packetBytes)"
vector 345 KFatTreeNew.pod[1].edgeSwitch[1].eth[1].encap decapPk:vector(packetBytes) ETV
attr interpolationmode none
attr source decapPk
attr title "packets decapsulated, vector(packetBytes)"
vector 346 KFatTreeNew.coreSwitch[0].eth[2].encap encapPk:vector(packetBytes) ETV
attr interpolationmode none
attr source encapPk
attr title "packets encapsulated, vector(packetBytes)"
vector 347 KFatTreeNew.coreSwitch[0].eth[2].mac packetReceivedFromUpper:vector(packetBytes) ETV
attr interpolationmode none
attr source packetReceivedFromUpper
attr title "packet bytes from higher layer, vector(packetBytes)"
vector 348 KFatTreeNew.coreSwitch[0].eth[2].mac.queue packetPushed:vector(packetBytes) ETV
attr interpolationmode none
attr title "packet pushed, vector(packetBytes)"
vector 349 KFatTreeNew.coreSwitch[0].eth[2].mac.queue queueLength:vector ETV
attr interpolationmode sample-hold
attr source "count(packetPushed) - count(packetPopped) - count(packetRemoved) - count(packetDropped)"
attr title "queue length, vector"
vector 350 KFatTreeNew.coreSwitch[0].eth[2].mac.queue packetPopped:vector(packetBytes) ETV
attr interpolationmode none
attr title "packet popped, vector(packetBytes)"
vector 351 KFatTreeNew.coreSwitch[0].eth[2].mac.queue queueingTime:vector ETV
attr interpolationmode none
attr source queueingTime(packetPopped)
attr title "queueing times, vector"
attr unit s
vector 352 KFatTreeNew.pod[2].aggregateSwitch[0].eth[0].mac rxPkOk:vector(packetBytes) ETV
attr interpolationmode none
attr source rxPkOk
attr title "packets received OK, vector(packetBytes)"
vector 353 KFatTreeNew.pod[2].aggregateSwitch[0].eth[0].mac passedUpPk:vector(packetBytes) ETV
attr interpolationmode none
attr source packetSentToUpper
attr title "packets passed to higher layer, vector(packetBytes)"
vector 354 KFatTreeNew.coreSwitch[0].eth[2].mac txPk:vector(packetBytes) ETV
attr interpolationmode none
attr source packetSentToLower
attr title "packets transmitted, vector(packetBytes)"
vector 355 KFatTreeNew.pod[2].aggregateSwitch[0].eth[0].encap decapPk:vector(packetBytes) ETV
attr interpolationmode none
attr source decapPk
attr title "packets decapsulated, vector(packetBytes)"
vector 356 KFatTreeNew.pod[2].aggregateSwitch[0].ipv4.arp arpReplySent:vector(packetBytes) ETV
attr source arpReplySent
attr title "ARP replies sent, vector(packetBytes)"
vector 357 KFatTreeNew.pod[2].aggregateSwitch[0].eth[0].encap encapPk:vector(packetBytes) ETV
attr interpolationmode none
attr source encapPk
attr title "packets encapsulated, vector(packetBytes)"
vector 358 KFatTreeNew.pod[2].aggregateSwitch[0].eth[0].mac packetReceivedFromUpper:vector(packetBytes) ETV
attr interpolationmode none
attr source packetReceivedFromUpper
attr title "packet bytes from higher layer, vector(packetBytes)"
vector 359 KFatTreeNew.pod[2].aggregateSwitch[0].eth[0].mac.queue packetPushed:vector(packetBytes) ETV
attr interpolationmode none
attr title "packet pushed, vector(packetBytes)"
vector 360 KFatTreeNew.pod[2].aggregateSwitch[0].eth[0].mac.queue queueLength:vector ETV
attr interpolationmode sample-hold
attr source "count(packetPushed) - count(packetPopped) - count(packetRemoved) - count(packetDropped)"
attr title "queue length, vector"
vector 361 KFatTreeNew.pod[2].aggregateSwitch[0].eth[0].mac.queue packetPopped:vector(packetBytes) ETV
attr interpolationmode none
attr title "packet popped, vector(packetBytes)"
vector 362 KFatTreeNew.pod[2].aggregateSwitch[0].eth[0].mac.queue queueingTime:vector ETV
attr interpolationmode none
attr source queueingTime(packetPopped)
attr title "queueing times, vector"
attr unit s
vector 363 KFatTreeNew.coreSwitch[0].eth[2].mac rxPkOk:vector(packetBytes) ETV
attr interpolationmode none
attr source rxPkOk
attr title "packets received OK, vector(packetBytes)"
vector 364 KFatTreeNew.coreSwitch[0].eth[2].mac passedUpPk:vector(packetBytes) ETV
attr interpolationmode none
attr source packetSentToUpper
attr title "packets passed to higher layer, vector(packetBytes)"
vector 365 KFatTreeNew.pod[2].aggregateSwitch[0].eth[0].mac txPk:vector(packetBytes) ETV
attr interpolationmode none
attr source packetSentToLower
attr title "packets transmitted, vector(packetBytes)"
vector 366 KFatTreeNew.coreSwitch[0].eth[2].encap decapPk:vector(packetBytes) ETV
attr interpolationmode none
attr source decapPk
attr title "packets decapsulated, vector(packetBytes)"
vector 367 KFatTreeNew.pod[2].aggregateSwitch[0].ipv4.arp arpRequestSent:vector(packetBytes) ETV
attr source arpRequestSent
attr title "ARP request sent, vector(packetBytes)"
vector 368 KFatTreeNew.pod[2].aggregateSwitch[0].eth[2].encap encapPk:vector(packetBytes) ETV
attr interpolationmode none
attr source encapPk
attr title "packets encapsulated, vector(packetBytes)"
vector 369 KFatTreeNew.pod[2].aggregateSwitch[0].eth[2].mac packetReceivedFromUpper:vector(packetBytes) ETV
attr interpolationmode none
attr source packetReceivedFromUpper
attr title "packet bytes from higher layer, vector(packetBytes)"
vector 370 KFatTreeNew.pod[2].aggregateSwitch[0].eth[2].mac.queue packetPushed:vector(packetBytes) ETV
attr interpolationmode none
attr title "packet pushed, vector(packetBytes)"
vector 371 KFatTreeNew.pod[2].aggregateSwitch[0].eth[2].mac.queue queueLength:vector ETV
attr interpolationmode sample-hold
attr source "count(packetPushed) - count(packetPopped) - count(packetRemoved) - count(packetDropped)"
attr title "queue length, vector"
vector 372 KFatTreeNew.pod[2].aggregateSwitch[0].eth[2].mac.queue packetPopped:vector(packetBytes) ETV
attr interpolationmode none
attr title "packet popped, vector(packetBytes)"
vector 373 KFatTreeNew.pod[2].aggregateSwitch[0].eth[2].mac.queue queueingTime:vector ETV
attr interpolationmode none
attr source queueingTime(packetPopped)
attr title "queueing times, vector"
attr unit s
vector 374 KFatTreeNew.pod[2].edgeSwitch[0].eth[2].mac rxPkOk:vector(packetBytes) ETV
attr interpolationmode none
attr source rxPkOk
attr title "packets received OK, vector(packetBytes)"
vector 375 KFatTreeNew.pod[2].edgeSwitch[0].eth[2].mac passedUpPk:vector(packetBytes) ETV
attr interpolationmode none
attr source packetSentToUpper
attr title "packets passed to higher layer, vector(packetBytes)"
vector 376 KFatTreeNew.pod[2].aggregateSwitch[0].eth[2].mac txPk:vector(packetBytes) ETV
attr interpolationmode none
attr source packetSentToLower
attr title "packets transmitted, vector(packetBytes)"
vector 377 KFatTreeNew.pod[2].edgeSwitch[0].eth[2].encap decapPk:vector(packetBytes) ETV
attr interpolationmode none
attr source decapPk
attr title "packets decapsulated, vector(packetBytes)"
vector 378 KFatTreeNew.pod[2].edgeSwitch[0].ipv4.arp arpReplySent:vector(packetBytes) ETV
attr source arpReplySent
attr title "ARP replies sent, vector(packetBytes)"
vector 379 KFatTreeNew.pod[2].edgeSwitch[0].eth[2].encap encapPk:vector(packetBytes) ETV
attr interpolationmode none
attr source encapPk
attr title "packets encapsulated, vector(packetBytes)"
vector 380 KFatTreeNew.pod[2].edgeSwitch[0].eth[2].mac packetReceivedFromUpper:vector(packetBytes) ETV
attr interpolationmode none
attr source packetReceivedFromUpper
attr title "packet bytes from higher layer, vector(packetBytes)"
vector 381 KFatTreeNew.pod[2].edgeSwitch[0].eth[2].mac.queue packetPushed:vector(packetBytes) ETV
attr interpolationmode none
attr title "packet pushed, vector(packetBytes)"
vector 382 KFatTreeNew.pod[2].edgeSwitch[0].eth[2].mac.queue queueLength:vector ETV
attr interpolationmode sample-hold
attr source "count(packetPushed) - count(packetPopped) - count(packetRemoved) - count(packetDropped)"
attr title "queue length, vector"
vector 383 KFatTreeNew.pod[2].edgeSwitch[0].eth[2].mac.queue packetPopped:vector(packetBytes) ETV
attr interpolationmode none
attr title "packet popped, vector(packetBytes)"
vector 384 KFatTreeNew.pod[2].edgeSwitch[0].eth[2].mac.queue queueingTime:vector ETV
attr interpolationmode none
attr source queueingTime(packetPopped)
attr title "queueing times, vector"
attr unit s
vector 385 KFatTreeNew.pod[2].aggregateSwitch[0].eth[2].mac rxPkOk:vector(packetBytes) ETV
attr interpolationmode none
attr source rxPkOk
attr title "packets received OK, vector(packetBytes)"
vector 386 KFatTreeNew.pod[2].aggregateSwitch[0].eth[2].mac passedUpPk:vector(packetBytes) ETV
attr interpolationmode none
attr source packetSentToUpper
attr title "packets passed to higher layer, vector(packetBytes)"
vector 387 KFatTreeNew.pod[2].edgeSwitch[0].eth[2].mac txPk:vector(packetBytes) ETV
attr interpolationmode none
attr source packetSentToLower
attr title "packets transmitted, vector(packetBytes)"
vector 388 KFatTreeNew.pod[2].aggregateSwitch[0].eth[2].encap decapPk:vector(packetBytes) ETV
attr interpolationmode none
attr source decapPk
attr title "packets decapsulated, vector(packetBytes)"
vector 389 KFatTreeNew.pod[2].edgeSwitch[0].ipv4.arp arpRequestSent:vector(packetBytes) ETV
attr source arpRequestSent
attr title "ARP request sent, vector(packetBytes)"
vector 390 KFatTreeNew.pod[2].edgeSwitch[0].eth[0].encap encapPk:vector(packetBytes) ETV
attr interpolationmode none
attr source encapPk
attr title "packets encapsulated, vector(packetBytes)"
vector 391 KFatTreeNew.pod[2].edgeSwitch[0].eth[0].mac packetReceivedFromUpper:vector(packetBytes) ETV
attr interpolationmode none
attr source packetReceivedFromUpper
attr title "packet bytes from higher layer, vector(packetBytes)"
vector 392 KFatTreeNew.pod[2].edgeSwitch[0].eth[0].mac.queue packetPushed:vector(packetBytes) ETV
attr interpolationmode none
attr title "packet pushed, vector(packetBytes)"
vector 393 KFatTreeNew.pod[2].edgeSwitch[0].eth[0].mac.queue queueLength:vector ETV
attr interpolationmode sample-hold
attr source "count(packetPushed) - count(packetPopped) - count(packetRemoved) - count(packetDropped)"
attr title "queue length, vector"
vector 394 KFatTreeNew.pod[2].edgeSwitch[0].eth[0].mac.queue packetPopped:vector(packetBytes) ETV
attr interpolationmode none
attr title "packet popped, vector(packetBytes)"
vector 395 KFatTreeNew.pod[2].edgeSwitch[0].eth[0].mac.queue queueingTime:vector ETV
attr interpolationmode none
attr source queueingTime(packetPopped)
attr title "queueing times, vector"
attr unit s
vector 396 KFatTreeNew.hosts.replica[6].eth[0].mac rxPkOk:vector(packetBytes) ETV
attr interpolationmode none
attr source rxPkOk
attr title "packets received OK, vector(packetBytes)"
vector 397 KFatTreeNew.hosts.replica[6].eth[0].mac passedUpPk:vector(packetBytes) ETV
attr interpolationmode none
attr source packetSentToUpper
attr title "packets passed to higher layer, vector(packetBytes)"
vector 398 KFatTreeNew.pod[2].edgeSwitch[0].eth[0].mac txPk:vector(packetBytes) ETV
attr interpolationmode none
attr source packetSentToLower
attr title "packets transmitted, vector(packetBytes)"
vector 399 KFatTreeNew.hosts.replica[6].eth[0].encap decapPk:vector(packetBytes) ETV
attr interpolationmode none
attr source decapPk
attr title "packets decapsulated, vector(packetBytes)"
vector 400 KFatTreeNew.hosts.replica[6].ipv4.arp arpReplySent:vector(packetBytes) ETV
attr source arpReplySent
[...]
705	1648	14	0
705	1648	14.1	0
705	1648	14.2	0
705	1648	14.3	0
705	1648	14.4	0
705	1648	14.5	0
705	1648	14.6	0
705	1648	14.7	0
705	1648	14.8	0
705	1648	14.9	0
705	1648	15	0
705	1648	15.1	0
705	1648	15.2	0
705	1648	15.3	0
705	1648	15.4	0
705	1648	15.5	0
705	1648	15.6	0
705	1648	15.7	0
705	1648	15.8	0
705	1648	15.9	0
705	1648	16	0
705	1648	16.1	0
705	1648	16.2	0
705	1648	16.3	0
705	1648	16.4	0
705	1648	16.5	0
705	1648	16.6	0
705	1648	16.7	0
705	1648	16.8	0
705	1648	16.9	0
705	1648	17	0
705	1648	17.1	0
705	1648	17.2	0
705	1648	17.3	0
705	1648	17.4	0
705	1648	17.5	0
705	1648	17.6	0
705	1648	17.7	0
705	1648	17.8	0
705	1648	17.9	0
705	1648	18	0
705	1648	18.1	0
705	1648	18.2	0
705	1648	18.3	0
705	1648	18.4	0
705	1648	18.5	0
705	1648	18.6	0
705	1648	18.7	0
705	1648	18.8	0
705	1648	18.9	0
705	1648	19	0
705	1648	19.1	0
705	1648	19.2	0
705	1648	19.3	0
705	1648	19.4	0
705	1648	19.5	0
705	1648	19.6	0
705	1648	19.7	0
705	1648	19.8	0
705	1648	19.9	0
705	1648	20	0
705	1648	20.1	0
705	1648	20.2	0
705	1648	20.3	0
705	1648	20.4	0
705	1648	20.5	0
705	1648	20.6	0
705	1648	20.7	0
705	1648	20.8	0
705	1648	20.9	0
705	1648	21	0
705	1648	21.1	0
705	1648	21.2	0
705	1648	21.3	0
705	1648	21.4	0
705	1648	21.5	0
705	1648	21.6	0
705	1648	21.7	0
705	1648	21.8	0
705	1648	21.9	0
705	1648	22	0
705	1648	22.1	0
705	1648	22.2	0
705	1648	22.3	0
705	1648	22.4	0
705	1648	22.5	0
705	1648	22.6	0
705	1648	22.7	0
705	1648	22.8	0
705	1648	22.9	0
705	1648	23	0
705	1648	23.1	0
705	1648	23.2	0
705	1648	23.3	0
705	1648	23.4	0
705	1648	23.5	0
705	1648	23.6	0
705	1648	23.7	0
705	1648	23.8	0
705	1648	23.9	0
705	1648	24	0
705	1648	24.1	0
705	1648	24.2	0
705	1648	24.3	0
705	1648	24.4	0
705	1648	24.5	0
705	1648	24.6	0
705	1648	24.7	0
705	1648	24.8	0
705	1648	24.9	0
705	1648	25	0
705	1648	25.1	0
705	1648	25.2	0
705	1648	25.3	0
705	1648	25.4	0
705	1648	25.5	0
705	1648	25.6	0
705	1648	25.7	0
705	1648	25.8	0
705	1648	25.9	0
705	1648	26	0
705	1648	26.1	0
705	1648	26.2	0
705	1648	26.3	0
705	1648	26.4	0
705	1648	26.5	0
705	1648	26.6	0
705	1648	26.7	0
705	1648	26.8	0
705	1648	26.9	0
705	1648	27	0
705	1648	27.1	0
705	1648	27.2	0
705	1648	27.3	0
705	1648	27.4	0
705	1648	27.5	0
705	1648	27.6	0
705	1648	27.7	0
705	1648	27.8	0
705	1648	27.9	0
705	1648	28	0
705	1648	28.1	0
705	1648	28.2	0
705	1648	28.3	0
705	1648	28.4	0
705	1648	28.5	0
705	1648	28.6	0
705	1648	28.7	0
705	1648	28.8	0
705	1648	28.9	0
705	1648	29	0
705	1648	29.1	0
705	1648	29.2	0
705	1648	29.3	0
705	1648	29.4	0
705	1648	29.5	0
705	1648	29.6	0
705	1648	29.7	0
705	1648	29.8	0
705	1648	29.9	0
705	1648	30	0
705	1648	30.1	0
705	1648	30.2	0
705	1648	30.3	0
705	1648	30.4	0
705	1648	30.5	0
705	1648	30.6	0
705	1648	30.7	0
705	1648	30.8	0
705	1648	30.9	0
705	1648	31	0
705	1648	31.1	0
705	1648	31.2	0
705	1648	31.3	0
705	1648	31.4	0
705	1648	31.5	0
705	1648	31.6	0
705	1648	31.7	0
705	1648	31.8	0
705	1648	31.9	0
705	1648	32	0
705	1648	32.1	0
705	1648	32.2	0
705	1648	32.3	0
705	1648	32.4	0
705	1648	32.5	0
705	1648	32.6	0
705	1648	32.7	0
705	1648	32.8	0
705	1648	32.9	0
705	1648	33	0
705	1648	33.1	0
705	1648	33.2	0
705	1648	33.3	0
705	1648	33.4	0
705	1648	33.5	0
705	1648	33.6	0
705	1648	33.7	0
705	1648	33.8	0
705	1648	33.9	0
705	1648	34	0
705	1648	34.1	0
705	1648	34.2	0
705	1648	34.3	0
705	1648	34.4	0
705	1648	34.5	0
705	1648	34.6	0
705	1648	34.7	0
705	1648	34.8	0
705	1648	34.9	0
705	1648	35	0
705	1648	35.1	0
705	1648	35.2	0
705	1648	35.3	0
705	1648	35.4	0
705	1648	35.5	0
705	1648	35.6	0
705	1648	35.7	0
705	1648	35.8	0
705	1648	35.9	0
705	1648	36	0
705	1648	36.1	0
705	1648	36.2	0
705	1648	36.3	0
705	1648	36.4	0
705	1648	36.5	0
705	1648	36.6	0
705	1648	36.7	0
705	1648	36.8	0
705	1648	36.9	0
705	1648	37	0
705	1648	37.1	0
705	1648	37.2	0
705	1648	37.3	0
705	1648	37.4	0
705	1648	37.5	0
705	1648	37.6	0
705	1648	37.7	0
705	1648	37.8	0
705	1648	37.9	0
705	1648	38	0
705	1648	38.1	0
705	1648	38.2	0
705	1648	38.3	0
705	1648	38.4	0
705	1648	38.5	0
705	1648	38.6	0
705	1648	38.7	0
705	1648	38.8	0
705	1648	38.9	0
705	1648	39	0
705	1648	39.1	0
705	1648	39.2	0
705	1648	39.3	0
705	1648	39.4	0
705	1648	39.5	0
705	1648	39.6	0
705	1648	39.7	0
705	1648	39.8	0
705	1648	39.9	0
705	1648	40	0
705	1648	40.1	0
705	1648	40.2	0
705	1648	40.3	0
705	1648	40.4	0
705	1648	40.5	0
705	1648	40.6	0
705	1648	40.7	0
705	1648	40.8	0
705	1648	40.9	0
705	1648	41	0
705	1648	41.1	0
705	1648	41.2	0
705	1648	41.3	0
705	1648	41.4	0
705	1648	41.5	0
705	1648	41.6	0
705	1648	41.7	0
705	1648	41.8	0
705	1648	41.9	0
705	1648	42	0
705	1648	42.1	0
705	1648	42.2	0
705	1648	42.3	0
705	1648	42.4	0
705	1648	42.5	0
705	1648	42.6	0
705	1648	42.7	0
705	1648	42.8	0
705	1648	42.9	0
705	1648	43	0
705	1648	43.1	0
705	1648	43.2	0
705	1648	43.3	0
705	1648	43.4	0
705	1648	43.5	0
705	1648	43.6	0
705	1648	43.7	0
705	1648	43.8	0
705	1648	43.9	0
705	1648	44	0
705	1648	44.1	0
705	1648	44.2	0
705	1648	44.3	0
705	1648	44.4	0
705	1648	44.5	0
705	1648	44.6	0
705	1648	44.7	0
705	1648	44.8	0
705	1648	44.9	0
705	1648	45	0
705	1648	45.1	0
705	1648	45.2	0
705	1648	45.3	0
705	1648	45.4	0
705	1648	45.5	0
705	1648	45.6	0
705	1648	45.7	0
705	1648	45.8	0
705	1648	45.9	0
705	1648	46	0
705	1648	46.1	0
705	1648	46.2	0
705	1648	46.3	0
705	1648	46.4	0
705	1648	46.5	0
705	1648	46.6	0
705	1648	46.7	0
705	1648	46.8	0
705	1648	46.9	0
705	1648	47	0
705	1648	47.1	0
705	1648	47.2	0
705	1648	47.3	0
705	1648	47.4	0
705	1648	47.5	0
705	1648	47.6	0
705	1648	47.7	0
705	1648	47.8	0
705	1648	47.9	0
705	1648	48	0
705	1648	48.1	0
705	1648	48.2	0
705	1648	48.3	0
705	1648	48.4	0
705	1648	48.5	0
705	1648	48.6	0
705	1648	48.7	0
705	1648	48.8	0
705	1648	48.9	0
705	1648	49	0
705	1648	49.1	0
705	1648	49.2	0
705	1648	49.3	0
705	1648	49.4	0
705	1648	49.5	0
705	1648	49.6	0
705	1648	49.7	0
705	1648	49.8	0
705	1648	49.9	0
705	1648	50	0
705	1648	50.1	0
705	1648	50.2	0
705	1648	50.3	0
705	1648	50.4	0
705	1648	50.5	0
705	1648	50.6	0
705	1648	50.7	0
705	1648	50.8	0
705	1648	50.9	0
705	1648	51	0
705	1648	51.1	0
705	1648	51.2	0
705	1648	51.3	0
705	1648	51.4	0
705	1648	51.5	0
705	1648	51.6	0
705	1648	51.7	0
705	1648	51.8	0
705	1648	51.9	0
705	1648	52	0
705	1648	52.1	0
705	1648	52.2	0
705	1648	52.3	0
705	1648	52.4	0
705	1648	52.5	0
705	1648	52.6	0
705	1648	52.7	0
705	1648	52.8	0
705	1648	52.9	0
705	1648	53	0
705	1648	53.1	0
705	1648	53.2	0
705	1648	53.3	0
705	1648	53.4	0
705	1648	53.5	0
705	1648	53.6	0
705	1648	53.7	0
705	1648	53.8	0
705	1648	53.9	0
705	1648	54	0
705	1648	54.1	0
705	1648	54.2	0
705	1648	54.3	0
705	1648	54.4	0
705	1648	54.5	0
705	1648	54.6	0
705	1648	54.7	0
705	1648	54.8	0
705	1648	54.9	0
705	1648	55	0
705	1648	55.1	0
705	1648	55.2	0
705	1648	55.3	0
705	1648	55.4	0
705	1648	55.5	0
705	1648	55.6	0
705	1648	55.7	0
705	1648	55.8	0
705	1648	55.9	0
705	1648	56	0
705	1648	56.1	0
705	1648	56.2	0
705	1648	56.3	0
705	1648	56.4	0
705	1648	56.5	0
705	1648	56.6	0
705	1648	56.7	0
705	1648	56.8	0
705	1648	56.9	0
705	1648	57	0
705	1648	57.1	0
705	1648	57.2	0
705	1648	57.3	0
705	1648	57.4	0
705	1648	57.5	0
705	1648	57.6	0
705	1648	57.7	0
705	1648	57.8	0
705	1648	57.9	0
705	1648	58	0
705	1648	58.1	0
705	1648	58.2	0
705	1648	58.3	0
705	1648	58.4	0
705	1648	58.5	0
705	1648	58.6	0
705	1648	58.7	0
705	1648	58.8	0
705	1648	58.9	0
705	1648	59	0
705	1648	59.1	0
705	1648	59.2	0
705	1648	59.3	0
705	1648	59.4	0
705	1648	59.5	0
705	1648	59.6	0
705	1648	59.7	0
705	1648	59.8	0
705	1648	59.9	0
705	1648	60	0
705	3487	60.1	200000
705	3487	60.2	0
705	3487	60.3	0
705	3487	60.4	0
705	3487	60.5	0
705	5305	60.6	200000
705	5305	60.7	0
705	5305	60.8	0
705	5305	60.9	0
705	5305	61	0
705	7144	61.1	200000
705	7144	61.2	0
705	7144	61.3	0
705	7144	61.4	0
705	7144	61.5	0
705	8983	61.6	200000
705	8983	61.7	0
705	8983	61.8	0
705	8983	61.9	0
705	8983	62	0
705	10843	62.1	200000
705	10843	62.2	0
705	10843	62.3	0
705	10843	62.4	0
705	10843	62.5	0
705	12605	62.6	200000
705	12605	62.7	0
705	12605	62.8	0
705	12605	62.9	0
705	12605	63	0
705	14444	63.1	200000
705	14444	63.2	0
705	14444	63.3	0
705	14444	63.4	0
705	14444	63.5	0
705	16360	63.6	200000
705	16360	63.7	0
705	16360	63.8	0
705	16360	63.9	0
705	16360	64	0
705	18122	64.1	200000
705	18122	64.2	0
705	18122	64.3	0
705	18122	64.4	0
705	18122	64.5	0
705	20038	64.6	200000
705	20038	64.7	0
705	20038	64.8	0
705	20038	64.9	0
705	20038	65	0
705	21856	65.1	200000
705	21856	65.2	0
705	21856	65.3	0
705	21856	65.4	0
705	21856	65.5	0
705	23639	65.6	200000
705	23639	65.7	0
705	23639	65.8	0
705	23639	65.9	0
705	23639	66	0
705	25478	66.1	200000
705	25478	66.2	0
705	25478	66.3	0
705	25478	66.4	0
705	25478	66.5	0
705	27317	66.6	200000
705	27317	66.7	0
705	27317	66.8	0
705	27317	66.9	0
705	27317	67	0
705	29156	67.1	200000
705	29156	67.2	0
705	29156	67.3	0
705	29156	67.4	0
705	29156	67.5	0
705	30995	67.6	200000
705	30995	67.7	0
705	30995	67.8	0
705	30995	67.9	0
705	30995	68	0
705	32834	68.1	200000
705	32834	68.2	0
705	32834	68.3	0
705	32834	68.4	0
705	32834	68.5	0
705	34673	68.6	200000
705	34673	68.7	0
705	34673	68.8	0
705	34673	68.9	0
705	34673	69	0
705	36512	69.1	200000
705	36512	69.2	0
705	36512	69.3	0
705	36512	69.4	0
705	36512	69.5	0
705	38428	69.6	200000
705	38428	69.7	0
705	38428	69.8	0
705	38428	69.9	0
705	38428	70	0
705	40190	70.1	200000
705	40190	70.2	0
705	40190	70.3	0
705	40190	70.4	0
705	40190	70.5	0
705	42029	70.6	200000
705	42029	70.7	0
705	42029	70.8	0
705	42029	70.9	0
705	42029	71	0
705	43868	71.1	200000
705	43868	71.2	0
705	43868	71.3	0
705	43868	71.4	0
705	43868	71.5	0
705	45707	71.6	200000
705	45707	71.7	0
705	45707	71.8	0
705	45707	71.9	0
705	45707	72	0
705	47546	72.1	200000
705	47546	72.2	0
705	47546	72.3	0
705	47546	72.4	0
705	47546	72.5	0
705	49385	72.6	200000
705	49385	72.7	0
705	49385	72.8	0
705	49385	72.9	0
705	49385	73	0
705	51301	73.1	200000
705	51301	73.2	0
705	51301	73.3	0
705	51301	73.4	0
705	51301	73.5	0
705	53140	73.6	200000
705	53140	73.7	0
705	53140	73.8	0
705	53140	73.9	0
705	53140	74	0
705	54902	74.1	200000
705	54902	74.2	0
705	54902	74.3	0
705	54902	74.4	0
705	54902	74.5	0
706	1648	60.00001885376	1.630528e-05
706	2261	60.00003347776	1.840256e-05
706	3487	60.50001848512	1.619008e-05
706	4100	60.50003322432	2.276352e-05
706	5305	61.00001848512	1.619008e-05
706	5939	61.00003402048	1.619008e-05
706	7144	61.50001848512	1.619008e-05
706	7778	61.50003402048	1.619008e-05
706	8983	62.00001848512	1.619008e-05
706	9617	62.00003402048	1.619008e-05
706	10843	62.50001848512	1.619008e-05
706	11456	62.50003322432	2.63392e-05
706	12605	63.00001848512	1.619008e-05
706	13295	63.00003717888	1.619008e-05
706	14444	63.50001848512	1.619008e-05
706	15134	63.50003717888	1.619008e-05
706	16360	64.00001848512	1.619008e-05
706	16973	64.00003322432	1.960512e-05
706	18122	64.50001848512	1.619008e-05
706	18812	64.50003717888	1.619008e-05
706	20038	65.00001848512	1.619008e-05
706	20651	65.00003322432	1.644672e-05
706	21856	65.50001848512	1.619008e-05
706	22490	65.50003402048	1.619008e-05
706	23639	66.00001848512	1.619008e-05
706	24329	66.00003717888	1.619008e-05
706	25478	66.50001848512	1.619008e-05
706	26168	66.50003717888	1.619008e-05
706	27317	67.00001848512	1.619008e-05
706	28007	67.00003717888	1.619008e-05
706	29156	67.50001848512	1.619008e-05
706	29846	67.50003717888	1.619008e-05
706	30995	68.00001848512	1.619008e-05
706	31685	68.00003717888	1.619008e-05
706	32834	68.50001848512	1.619008e-05
706	33524	68.50003717888	1.619008e-05
706	34673	69.00001848512	1.619008e-05
706	35363	69.00003507328	1.619008e-05
706	36512	69.50001848512	1.619008e-05
706	37202	69.50003717888	1.619008e-05
706	38428	70.00001848512	1.619008e-05
706	39041	70.00003322432	1.960512e-05
706	40190	70.50001848512	1.619008e-05
706	40880	70.50003717888	1.619008e-05
706	42029	71.00001848512	1.619008e-05
706	42719	71.00003717888	1.619008e-05
706	43868	71.50001848512	1.619008e-05
706	44558	71.50003717888	1.619008e-05
706	45707	72.00001848512	1.619008e-05
706	46397	72.00003717888	1.619008e-05
706	47546	72.50001848512	1.619008e-05
706	48236	72.50003717888	1.619008e-05
706	49385	73.00001848512	1.619008e-05
706	50075	73.00003717888	1.619008e-05
706	51301	73.50001848512	1.619008e-05
706	51914	73.50003322432	1.855232e-05
706	53140	74.00001848512	1.619008e-05
706	53753	74.00003322432	2.276352e-05
706	54902	74.50001848512	1.619008e-05
706	55592	74.50003717888	1.619008e-05
707	1648	60.00001885376	0
707	2261	60.00003347776	0
707	3487	60.50001848512	0
707	4100	60.50003322432	0
707	5305	61.00001848512	0
707	5939	61.00003402048	0
707	7144	61.50001848512	0
707	7778	61.50003402048	0
707	8983	62.00001848512	0
707	9617	62.00003402048	0
707	10843	62.50001848512	0
707	11456	62.50003322432	0
707	12605	63.00001848512	0
707	13295	63.00003717888	0
707	14444	63.50001848512	0
707	15134	63.50003717888	0
707	16360	64.00001848512	0
707	16973	64.00003322432	0
707	18122	64.50001848512	0
707	18812	64.50003717888	0
707	20038	65.00001848512	0
707	20651	65.00003322432	0
707	21856	65.50001848512	0
707	22490	65.50003402048	0
707	23639	66.00001848512	0
707	24329	66.00003717888	0
707	25478	66.50001848512	0
707	26168	66.50003717888	0
707	27317	67.00001848512	0
707	28007	67.00003717888	0
707	29156	67.50001848512	0
707	29846	67.50003717888	0
707	30995	68.00001848512	0
707	31685	68.00003717888	0
707	32834	68.50001848512	0
707	33524	68.50003717888	0
707	34673	69.00001848512	0
707	35363	69.00003507328	0
707	36512	69.50001848512	0
707	37202	69.50003717888	0
707	38428	70.00001848512	0
707	39041	70.00003322432	0
707	40190	70.50001848512	0
707	40880	70.50003717888	0
707	42029	71.00001848512	0
707	42719	71.00003717888	0
707	43868	71.50001848512	0
707	44558	71.50003717888	0
707	45707	72.00001848512	0
707	46397	72.00003717888	0
707	47546	72.50001848512	0
707	48236	72.50003717888	0
707	49385	73.00001848512	0
707	50075	73.00003717888	0
707	51301	73.50001848512	0
707	51914	73.50003322432	0
707	53140	74.00001848512	0
707	53753	74.00003322432	0
707	54902	74.50001848512	0
707	55592	74.50003717888	0
708	1649	60.00001885376	1258
708	3488	60.50001848512	1258
708	5306	61.00001848512	1258
708	7145	61.50001848512	1258
708	8984	62.00001848512	1258
708	10844	62.50001848512	1258
708	12606	63.00001848512	1258
708	14445	63.50001848512	1258
708	16361	64.00001848512	1258
708	18123	64.50001848512	1258
708	20039	65.00001848512	1258
708	21857	65.50001848512	1258
708	23640	66.00001848512	1258
708	25479	66.50001848512	1258
708	27318	67.00001848512	1258
708	29157	67.50001848512	1258
708	30996	68.00001848512	1258
708	32835	68.50001848512	1258
708	34674	69.00001848512	1258
708	36513	69.50001848512	1258
708	38429	70.00001848512	1258
708	40191	70.50001848512	1258
708	42030	71.00001848512	1258
708	43869	71.50001848512	1258
708	45708	72.00001848512	1258
708	47547	72.50001848512	1258
708	49386	73.00001848512	1258
708	51302	73.50001848512	1258
708	53141	74.00001848512	1258
708	54903	74.50001848512	1258
47	56592	75.00001563008	1278
48	56593	75.00001563008	1296
49	56593	75.00001563008	1296
50	56593	75.00001563008	1
50	56593	75.00001563008	0
51	56593	75.00001563008	1296
52	56593	75.00001563008	0
53	56601	75.0000157344	1296
54	56601	75.0000157344	1296
55	56602	75.0000157344	1296
56	56604	75.0000157344	1278
58	56613	75.00001597184	1278
59	56614	75.00001597184	1296
60	56614	75.00001597184	1296
61	56614	75.00001597184	1
61	56614	75.00001597184	0
62	56614	75.00001597184	1296
63	56614	75.00001597184	0
64	56616	75.00001607616	1296
65	56616	75.00001607616	1296
66	56617	75.00001607616	1296
67	56618	75.00001607616	1278
69	56606	75.0000157344	1278
70	56607	75.0000157344	1296
71	56607	75.0000157344	1296
72	56607	75.0000157344	1
72	56607	75.0000157344	0
73	56607	75.0000157344	1296
74	56607	75.0000157344	0
75	56595	75.0000157248	1296
76	56595	75.0000157248	1296
77	56596	75.0000157248	1296
78	56597	75.0000157248	1278
83	56615	75.00001598144	14
84	56615	75.00001598144	1296
85	56615	75.00001598144	1.36864e-05
86	56609	75.00001597184	1296
87	56609	75.00001597184	1296
88	56610	75.00001597184	1296
89	56611	75.00001597184	1278
90	56599	75.0000157248	1258
91	56599	75.0000157248	460
92	56600	75.0000157248	1250
94	56600	75.0000157248	2.50368e-06
95	56600	75.0000157248	0
146	56620	75.00001607616	1278
147	56621	75.00001607616	1296
148	56621	75.00001607616	1296
149	56621	75.00001607616	1
149	56621	75.00001607616	0
150	56621	75.00001607616	1296
151	56621	75.00001607616	0
159	56623	75.00001618048	1296
160	56623	75.00001618048	1296
161	56624	75.00001618048	1296
162	56625	75.00001618048	1278
164	56585	75.00001552576	1278
164	56673	75.00001657856	1278
165	56586	75.00001552576	1296
165	56674	75.00001657856	1296
166	56586	75.00001552576	1296
166	56674	75.00001657856	1296
167	56586	75.00001552576	1
167	56586	75.00001552576	0
167	56674	75.00001657856	1
167	56674	75.00001657856	0
168	56586	75.00001552576	1296
168	56674	75.00001657856	1296
169	56586	75.00001552576	0
169	56674	75.00001657856	0
170	56588	75.00001563008	1296
171	56588	75.00001563008	1296
172	56589	75.00001563008	1296
173	56590	75.00001563008	1278
357	56578	75.00001542144	1278
358	56579	75.00001542144	1296
359	56579	75.00001542144	1296
360	56579	75.00001542144	1
360	56579	75.00001542144	0
361	56579	75.00001542144	1296
362	56579	75.00001542144	0
363	56581	75.00001552576	1296
364	56581	75.00001552576	1296
365	56582	75.00001552576	1296
366	56583	75.00001552576	1278
524	56627	75.00001618048	1278
525	56628	75.00001618048	1296
526	56628	75.00001618048	1296
527	56628	75.00001618048	1
527	56628	75.00001618048	0
528	56628	75.00001618048	1296
529	56628	75.00001618048	0
530	56630	75.0000162848	1296
531	56630	75.0000162848	1296
532	56631	75.0000162848	1296
533	56632	75.0000162848	1278
535	56666	75.00001647424	1278
536	56667	75.00001647424	1296
537	56667	75.00001647424	1296
538	56667	75.00001647424	1
538	56667	75.00001647424	0
539	56667	75.00001647424	1296
540	56667	75.00001647424	0
541	56669	75.00001657856	1296
542	56669	75.00001657856	1296
543	56670	75.00001657856	1296
544	56671	75.00001657856	1278
546	56634	75.0000162848	1278
547	56635	75.0000162848	1296
548	56635	75.0000162848	1296
549	56635	75.0000162848	1
549	56635	75.0000162848	0
550	56635	75.0000162848	1296
551	56635	75.0000162848	0
552	56654	75.00001638912	1296
553	56654	75.00001638912	1296
554	56655	75.00001638912	1296
555	56657	75.00001638912	1278
557	56641	75.00001636992	1278
558	56642	75.00001636992	1296
559	56642	75.00001636992	1296
560	56642	75.00001636992	1
560	56642	75.00001636992	0
561	56642	75.00001636992	1296
562	56642	75.00001636992	0
563	56662	75.00001647424	1296
564	56662	75.00001647424	1296
565	56663	75.00001647424	1296
566	56664	75.00001647424	1278
592	56637	75.00001636992	1296
593	56637	75.00001636992	1296
594	56638	75.00001636992	1296
595	56639	75.00001636992	1278
624	56643	75.00001637952	1296
625	56643	75.00001637952	1296
626	56644	75.00001637952	1296
627	56646	75.00001637952	1278
629	56652	75.00001637952	1278
630	56653	75.00001637952	1296
631	56653	75.00001637952	1296
632	56653	75.00001637952	1
632	56653	75.00001637952	0
633	56653	75.00001637952	1296
634	56653	75.00001637952	0
646	56659	75.00001638912	1278
647	56660	75.00001638912	1296
648	56660	75.00001638912	1296
649	56660	75.00001638912	1
649	56660	75.00001638912	0
650	56660	75.00001638912	1296
651	56660	75.00001638912	0
667	56648	75.00001637952	1258
668	56648	75.00001637952	61
669	56649	75.00001637952	1250
670	56649	74.6	200000
670	56649	74.7	0
670	56649	74.8	0
670	56649	74.9	0
670	56649	75	0
671	56649	75.00001637952	1.408448e-05
672	56649	75.00001637952	0
673	56650	75.00001637952	1258
93	56674	75.00001657856	6031886967.2637
142	56674	75.00001657856	603188696.72637
155	56674	75.00001657856	603188696.72637
286	56674	75.00001657856	603188696.72637
314	56674	75.00001657856	603188696.72637
338	56674	75.00001657856	603188696.72637
410	56674	75.00001657856	603188696.72637
464	56674	75.00001657856	603188696.72637
492	56674	75.00001657856	603188696.72637
516	56674	75.00001657856	603188696.72637
588	56674	75.00001657856	603188696.72637
642	56674	75.00001657856	603188696.72637
670	56674	75.00001657856	603188696.72637
694	56674	74.6	200000
694	56674	74.7	0
694	56674	74.8	0
694	56674	74.9	0
694	56674	75	0
694	56674	75.00001657856	0
705	56674	74.6	200000
705	56674	74.7	0
705	56674	74.8	0
705	56674	74.9	0
705	56674	75	0
705	56674	75.00001657856	0

