version 2
run General-0-20220521-14:23:05-61910
attr configname General
attr datetime 20220521-14:23:05
attr experiment General
attr inifile kFatTreeAsync.ini
attr iterationvars ""
attr iterationvarsf ""
attr measurement ""
attr network KFatTreeAsync
attr processid 61910
attr repetition 0
attr replication #0
attr resultdir results
attr runnumber 0
attr seedset 0
param **.k 4
param **.client.numApps 1
param **.client.app[0].typename "\"ClientAppNoCoord\""
param **.client.app[0].localPort 100
param **.client.app[0].destPort 100
param **.client.app[0].messageLength 1250B
param **.client.app[0].sendInterval 0.5s
param **.client.app[0].destAddresses "moduleListByPath(\"**.replica[*]\")"
param **.replica[*].numApps 1
param **.replica[*].app[0].typename "\"ReplicaAppBroadcast\""
param **.replica[*].app[0].localPort 100
param **.replica[*].app[0].destPort 100
param **.replica[*].app[0].messageLength 1250B
param **.replica[*].app[0].destAddresses "moduleListByPath(\"**.replica[*]\", \"**.client\")"
param **.app[0].startTime 0s
param **.app[0].stopTime 30s
param **.app[0].delayLimit 3s
param **.app[0].joinLocalMulticastGroups true

scalar KFatTreeAsync.coreSwitch[0].lo[0].lo rcvdPkFromHl:count 0
attr interpolationmode none
attr source packetReceivedFromUpper
attr title "packets received from higher layer, count"
scalar KFatTreeAsync.coreSwitch[0].lo[0].lo rcvdPkFromHl:sum(packetBytes) 0
attr interpolationmode none
attr source packetReceivedFromUpper
attr title "packets received from higher layer, sum(packetBytes)"
scalar KFatTreeAsync.coreSwitch[0].lo[0].lo passedUpPk:count 0
attr interpolationmode none
attr source packetSentToUpper
attr title "packets passed to higher layer, count"
scalar KFatTreeAsync.coreSwitch[0].lo[0].lo passedUpPk:sum(packetBytes) 0
attr interpolationmode none
attr source packetSentToUpper
attr title "packets passed to higher layer, sum(packetBytes)"
scalar KFatTreeAsync.coreSwitch[0].eth[0].mac.queue packetPopped:count 279
attr interpolationmode none
attr title "packet popped, count"
scalar KFatTreeAsync.coreSwitch[0].eth[0].mac.queue packetPopped:sum(packetBytes) 360352
attr interpolationmode none
attr title "packet popped, sum(packetBytes)"
statistic KFatTreeAsync.coreSwitch[0].eth[0].mac.queue queueingTime:histogram
field count 279
field mean 2.3442580645161e-08
field stddev 4.9365357896229e-08
field min 0
field max 2.1056e-07
field sum 6.54048e-06
field sqrsum 8.307946496e-13
attr interpolationmode none
attr source queueingTime(packetPopped)
attr title "queueing times, histogram"
attr unit s
bin	-inf	0
bin	0	223
bin	5e-09	0
bin	1e-08	0
bin	1.5e-08	0
bin	2e-08	0
bin	2.5e-08	0
bin	3e-08	0
bin	3.5e-08	0
bin	4e-08	0
bin	4.5e-08	0
bin	5e-08	0
bin	5.5e-08	0
bin	6e-08	0
bin	6.5e-08	0
bin	7e-08	0
bin	7.5e-08	0
bin	8e-08	2
bin	8.5e-08	0
bin	9e-08	2
bin	9.5e-08	0
bin	1e-07	0
bin	1.05e-07	45
bin	1.1e-07	0
bin	1.15e-07	0
bin	1.2e-07	0
bin	1.25e-07	0
bin	1.3e-07	0
bin	1.35e-07	0
bin	1.4e-07	0
bin	1.45e-07	0
bin	1.5e-07	0
bin	1.55e-07	0
bin	1.6e-07	0
bin	1.65e-07	0
bin	1.7e-07	0
bin	1.75e-07	0
bin	1.8e-07	0
bin	1.85e-07	0
bin	1.9e-07	0
bin	1.95e-07	2
bin	2e-07	0
bin	2.05e-07	0
bin	2.1e-07	5
bin	2.15e-07	0
bin	2.2e-07	0
bin	2.25e-07	0
bin	2.3e-07	0
bin	2.35e-07	0
bin	2.4e-07	0
bin	2.45e-07	0
bin	2.5e-07	0
bin	2.55e-07	0
bin	2.6e-07	0
bin	2.65e-07	0
scalar KFatTreeAsync.coreSwitch[0].eth[0].mac.queue queueLength:max 2
attr interpolationmode sample-hold
attr source "count(packetPushed) - count(packetPopped) - count(packetRemoved) - count(packetDropped)"
attr title "queue length, max"
scalar KFatTreeAsync.coreSwitch[0].eth[0].mac.queue queueLength:timeavg 2.6161091139614e-06
attr interpolationmode sample-hold
attr source "count(packetPushed) - count(packetPopped) - count(packetRemoved) - count(packetDropped)"
attr title "queue length, timeavg"
scalar KFatTreeAsync.coreSwitch[0].eth[0].mac.queue packetPushed:count 279
attr interpolationmode none
attr title "packet pushed, count"
scalar KFatTreeAsync.coreSwitch[0].eth[0].mac.queue packetPushed:sum(packetBytes) 360352
attr interpolationmode none
attr title "packet pushed, sum(packetBytes)"
scalar KFatTreeAsync.coreSwitch[0].eth[0].mac.queue packetDropQueueOverflow:count 0
attr interpolationmode none
attr source packetDropReasonIsQueueOverflow(packetDropped)
attr title "packet drops: queue overflow, count"
scalar KFatTreeAsync.coreSwitch[0].eth[0].mac.queue packetDropQueueOverflow:sum(packetBytes) 0
attr interpolationmode none
attr source packetDropReasonIsQueueOverflow(packetDropped)
attr title "packet drops: queue overflow, sum(packetBytes)"
scalar KFatTreeAsync.coreSwitch[0].eth[0].mac.queue packetRemoved:count 0
attr interpolationmode none
attr title "packets removed, count"
scalar KFatTreeAsync.coreSwitch[0].eth[0].mac.queue packetRemoved:sum(packetBytes) 0
attr interpolationmode none
attr title "packets removed, sum(packetBytes)"
scalar KFatTreeAsync.coreSwitch[0].eth[0].mac "simulated time" 2.50008370144
scalar KFatTreeAsync.coreSwitch[0].eth[0].mac full-duplex 1
scalar KFatTreeAsync.coreSwitch[0].eth[0].mac "frames/sec sent" 111.59626369281
scalar KFatTreeAsync.coreSwitch[0].eth[0].mac "frames/sec rcvd" 114.39616995034
scalar KFatTreeAsync.coreSwitch[0].eth[0].mac "bits/sec sent" 1153087.7939565
scalar KFatTreeAsync.coreSwitch[0].eth[0].mac "bits/sec rcvd" 1178174.9540239
scalar KFatTreeAsync.coreSwitch[0].eth[0].mac "rx channel idle (%)" 100
scalar KFatTreeAsync.coreSwitch[0].eth[0].mac "rx channel utilization (%)" 0
scalar KFatTreeAsync.coreSwitch[0].eth[0].mac rxPausePkUnits:count 0
attr interpolationmode none
attr title "pause units received, count"
scalar KFatTreeAsync.coreSwitch[0].eth[0].mac rxPausePkUnits:sum 0
attr interpolationmode none
attr title "pause units received, sum"
scalar KFatTreeAsync.coreSwitch[0].eth[0].mac txPausePkUnits:count 0
attr interpolationmode none
attr title "pause units sent, count"
scalar KFatTreeAsync.coreSwitch[0].eth[0].mac txPausePkUnits:sum 0
attr interpolationmode none
attr title "pause units sent, sum"
scalar KFatTreeAsync.coreSwitch[0].eth[0].mac rxPkOk:count 286
attr interpolationmode none
attr source rxPkOk
attr title "packets received OK, count"
scalar KFatTreeAsync.coreSwitch[0].eth[0].mac rxPkOk:sum(packetBytes) 368192
attr interpolationmode none
attr source rxPkOk
attr title "packets received OK, sum(packetBytes)"
scalar KFatTreeAsync.coreSwitch[0].eth[0].mac txPk:count 279
attr interpolationmode none
attr source packetSentToLower
attr title "packets transmitted, count"
scalar KFatTreeAsync.coreSwitch[0].eth[0].mac txPk:sum(packetBytes) 360352
attr interpolationmode none
attr source packetSentToLower
attr title "packets transmitted, sum(packetBytes)"
scalar KFatTreeAsync.coreSwitch[0].eth[0].mac packetReceivedFromUpper:count 279
attr interpolationmode none
attr source packetReceivedFromUpper
attr title "packet bytes from higher layer, count"
scalar KFatTreeAsync.coreSwitch[0].eth[0].mac packetReceivedFromUpper:sum(packetBytes) 360334
attr interpolationmode none
attr source packetReceivedFromUpper
attr title "packet bytes from higher layer, sum(packetBytes)"
scalar KFatTreeAsync.coreSwitch[0].eth[0].mac passedUpPk:count 286
attr interpolationmode none
attr source packetSentToUpper
attr title "packets passed to higher layer, count"
scalar KFatTreeAsync.coreSwitch[0].eth[0].mac passedUpPk:sum(packetBytes) 368192
attr interpolationmode none
attr source packetSentToUpper
attr title "packets passed to higher layer, sum(packetBytes)"
scalar KFatTreeAsync.coreSwitch[0].eth[0].mac packetDropIncorrectlyReceived:count 0
attr interpolationmode none
attr source packetDropReasonIsIncorrectlyReceived(packetDropped)
attr title "packet drop: incorrectly received, count"
scalar KFatTreeAsync.coreSwitch[0].eth[0].mac packetDropIncorrectlyReceived:sum(packetBytes) 0
attr interpolationmode none
attr source packetDropReasonIsIncorrectlyReceived(packetDropped)
attr title "packet drop: incorrectly received, sum(packetBytes)"
scalar KFatTreeAsync.coreSwitch[0].eth[0].mac packetDropInterfaceDown:count 0
attr interpolationmode none
attr source packetDropReasonIsInterfaceDown(packetDropped)
attr title "packet drop: interface down, count"
scalar KFatTreeAsync.coreSwitch[0].eth[0].mac packetDropInterfaceDown:sum(packetBytes) 0
attr interpolationmode none
attr source packetDropReasonIsInterfaceDown(packetDropped)
attr title "packet drop: interface down, sum(packetBytes)"
scalar KFatTreeAsync.coreSwitch[0].eth[0].mac packetDropNotAddressedToUs:count 0
attr interpolationmode none
attr source packetDropReasonIsNotAddressedToUs(packetDropped)
attr title "packet drop: not addressed to us, count"
scalar KFatTreeAsync.coreSwitch[0].eth[0].mac packetDropNotAddressedToUs:sum(packetBytes) 0
attr interpolationmode none
attr source packetDropReasonIsNotAddressedToUs(packetDropped)
attr title "packet drop: not addressed to us, sum(packetBytes)"
scalar KFatTreeAsync.coreSwitch[0].eth[0].encap pauseSent:count 0
attr title "pause sent, count"
scalar KFatTreeAsync.coreSwitch[0].eth[0].encap pauseSent:sum 0
attr title "pause sent, sum"
scalar KFatTreeAsync.coreSwitch[0].eth[0].encap decapPk:count 286
attr interpolationmode none
attr source decapPk
attr title "packets decapsulated, count"
scalar KFatTreeAsync.coreSwitch[0].eth[0].encap decapPk:sum(packetBytes) 363044
attr interpolationmode none
attr source decapPk
attr title "packets decapsulated, sum(packetBytes)"
scalar KFatTreeAsync.coreSwitch[0].eth[0].encap encapPk:count 279
attr interpolationmode none
attr source encapPk
attr title "packets encapsulated, count"
scalar KFatTreeAsync.coreSwitch[0].eth[0].encap encapPk:sum(packetBytes) 355312
attr interpolationmode none
attr source encapPk
attr title "packets encapsulated, sum(packetBytes)"
scalar KFatTreeAsync.coreSwitch[0].eth[1].mac.queue packetPopped:count 263
attr interpolationmode none
attr title "packet popped, count"
scalar KFatTreeAsync.coreSwitch[0].eth[1].mac.queue packetPopped:sum(packetBytes) 339616
attr interpolationmode none
attr title "packet popped, sum(packetBytes)"
statistic KFatTreeAsync.coreSwitch[0].eth[1].mac.queue queueingTime:histogram
field count 263
field mean 1.5211558935361e-08
field stddev 4.139746070599e-08
field min 0
field max 2.1056e-07
field sum 4.00064e-06
field sqrsum 5.098584064e-13
attr interpolationmode none
attr source queueingTime(packetPopped)
attr title "queueing times, histogram"
attr unit s
bin	-inf	0
bin	0	229
bin	4e-09	0
bin	8e-09	0
bin	1.2e-08	0
bin	1.6e-08	0
bin	2e-08	0
bin	2.4e-08	0
bin	2.8e-08	0
bin	3.2e-08	0
bin	3.6e-08	0
bin	4e-08	0
bin	4.4e-08	0
bin	4.8e-08	0
bin	5.2e-08	0
bin	5.6e-08	0
bin	6e-08	0
bin	6.4e-08	0
bin	6.8e-08	0
bin	7.2e-08	0
bin	7.6e-08	0
bin	8e-08	0
bin	8.4e-08	0
bin	8.8e-08	0
bin	9.2e-08	0
bin	9.6e-08	0
bin	1e-07	0
bin	1.04e-07	30
bin	1.08e-07	0
bin	1.12e-07	0
bin	1.16e-07	0
bin	1.2e-07	0
bin	1.24e-07	0
bin	1.28e-07	0
bin	1.32e-07	0
bin	1.36e-07	0
bin	1.4e-07	0
bin	1.44e-07	0
bin	1.48e-07	0
bin	1.52e-07	0
bin	1.56e-07	0
bin	1.6e-07	0
bin	1.64e-07	0
bin	1.68e-07	0
bin	1.72e-07	0
bin	1.76e-07	0
bin	1.8e-07	0
bin	1.84e-07	0
bin	1.88e-07	0
bin	1.92e-07	0
bin	1.96e-07	0
bin	2e-07	0
bin	2.04e-07	0
bin	2.08e-07	4
bin	2.12e-07	0
scalar KFatTreeAsync.coreSwitch[0].eth[1].mac.queue queueLength:max 2
attr interpolationmode sample-hold
attr source "count(packetPushed) - count(packetPopped) - count(packetRemoved) - count(packetDropped)"
attr title "queue length, max"
scalar KFatTreeAsync.coreSwitch[0].eth[1].mac.queue queueLength:timeavg 1.6002053712431e-06
attr interpolationmode sample-hold
attr source "count(packetPushed) - count(packetPopped) - count(packetRemoved) - count(packetDropped)"
attr title "queue length, timeavg"
scalar KFatTreeAsync.coreSwitch[0].eth[1].mac.queue packetPushed:count 263
attr interpolationmode none
attr title "packet pushed, count"
scalar KFatTreeAsync.coreSwitch[0].eth[1].mac.queue packetPushed:sum(packetBytes) 339616
attr interpolationmode none
attr title "packet pushed, sum(packetBytes)"
scalar KFatTreeAsync.coreSwitch[0].eth[1].mac.queue packetDropQueueOverflow:count 0
attr interpolationmode none
attr source packetDropReasonIsQueueOverflow(packetDropped)
attr title "packet drops: queue overflow, count"
scalar KFatTreeAsync.coreSwitch[0].eth[1].mac.queue packetDropQueueOverflow:sum(packetBytes) 0
attr interpolationmode none
attr source packetDropReasonIsQueueOverflow(packetDropped)
attr title "packet drops: queue overflow, sum(packetBytes)"
scalar KFatTreeAsync.coreSwitch[0].eth[1].mac.queue packetRemoved:count 0
attr interpolationmode none
attr title "packets removed, count"
scalar KFatTreeAsync.coreSwitch[0].eth[1].mac.queue packetRemoved:sum(packetBytes) 0
attr interpolationmode none
attr title "packets removed, sum(packetBytes)"
scalar KFatTreeAsync.coreSwitch[0].eth[1].mac "simulated time" 2.50008370144
scalar KFatTreeAsync.coreSwitch[0].eth[1].mac full-duplex 1
scalar KFatTreeAsync.coreSwitch[0].eth[1].mac "frames/sec sent" 105.19647796132
scalar KFatTreeAsync.coreSwitch[0].eth[1].mac "frames/sec rcvd" 107.19641100241
scalar KFatTreeAsync.coreSwitch[0].eth[1].mac "bits/sec sent" 1086734.8154924
scalar KFatTreeAsync.coreSwitch[0].eth[1].mac "bits/sec rcvd" 1103527.8532518
scalar KFatTreeAsync.coreSwitch[0].eth[1].mac "rx channel idle (%)" 100
scalar KFatTreeAsync.coreSwitch[0].eth[1].mac "rx channel utilization (%)" 0
scalar KFatTreeAsync.coreSwitch[0].eth[1].mac rxPausePkUnits:count 0
attr interpolationmode none
attr title "pause units received, count"
scalar KFatTreeAsync.coreSwitch[0].eth[1].mac rxPausePkUnits:sum 0
attr interpolationmode none
attr title "pause units received, sum"
scalar KFatTreeAsync.coreSwitch[0].eth[1].mac txPausePkUnits:count 0
attr interpolationmode none
attr title "pause units sent, count"
scalar KFatTreeAsync.coreSwitch[0].eth[1].mac txPausePkUnits:sum 0
attr interpolationmode none
attr title "pause units sent, sum"
scalar KFatTreeAsync.coreSwitch[0].eth[1].mac rxPkOk:count 268
attr interpolationmode none
attr source rxPkOk
attr title "packets received OK, count"
scalar KFatTreeAsync.coreSwitch[0].eth[1].mac rxPkOk:sum(packetBytes) 344864
attr interpolationmode none
attr source rxPkOk
attr title "packets received OK, sum(packetBytes)"
scalar KFatTreeAsync.coreSwitch[0].eth[1].mac txPk:count 263
attr interpolationmode none
attr source packetSentToLower
attr title "packets transmitted, count"
scalar KFatTreeAsync.coreSwitch[0].eth[1].mac txPk:sum(packetBytes) 339616
attr interpolationmode none
attr source packetSentToLower
attr title "packets transmitted, sum(packetBytes)"
scalar KFatTreeAsync.coreSwitch[0].eth[1].mac packetReceivedFromUpper:count 263
attr interpolationmode none
attr source packetReceivedFromUpper
attr title "packet bytes from higher layer, count"
scalar KFatTreeAsync.coreSwitch[0].eth[1].mac packetReceivedFromUpper:sum(packetBytes) 339598
attr interpolationmode none
attr source packetReceivedFromUpper
attr title "packet bytes from higher layer, sum(packetBytes)"
scalar KFatTreeAsync.coreSwitch[0].eth[1].mac passedUpPk:count 268
attr interpolationmode none
attr source packetSentToUpper
attr title "packets passed to higher layer, count"
scalar KFatTreeAsync.coreSwitch[0].eth[1].mac passedUpPk:sum(packetBytes) 344864
attr interpolationmode none
attr source packetSentToUpper
attr title "packets passed to higher layer, sum(packetBytes)"
scalar KFatTreeAsync.coreSwitch[0].eth[1].mac packetDropIncorrectlyReceived:count 0
attr interpolationmode none
attr source packetDropReasonIsIncorrectlyReceived(packetDropped)
attr title "packet drop: incorrectly received, count"
scalar KFatTreeAsync.coreSwitch[0].eth[1].mac packetDropIncorrectlyReceived:sum(packetBytes) 0
attr interpolationmode none
attr source packetDropReasonIsIncorrectlyReceived(packetDropped)
attr title "packet drop: incorrectly received, sum(packetBytes)"
scalar KFatTreeAsync.coreSwitch[0].eth[1].mac packetDropInterfaceDown:count 0
attr interpolationmode none
attr source packetDropReasonIsInterfaceDown(packetDropped)
attr title "packet drop: interface down, count"
scalar KFatTreeAsync.coreSwitch[0].eth[1].mac packetDropInterfaceDown:sum(packetBytes) 0
attr interpolationmode none
attr source packetDropReasonIsInterfaceDown(packetDropped)
attr title "packet drop: interface down, sum(packetBytes)"
scalar KFatTreeAsync.coreSwitch[0].eth[1].mac packetDropNotAddressedToUs:count 0
attr interpolationmode none
attr source packetDropReasonIsNotAddressedToUs(packetDropped)
attr title "packet drop: not addressed to us, count"
scalar KFatTreeAsync.coreSwitch[0].eth[1].mac packetDropNotAddressedToUs:sum(packetBytes) 0
attr interpolationmode none
attr source packetDropReasonIsNotAddressedToUs(packetDropped)
attr title "packet drop: not addressed to us, sum(packetBytes)"
scalar KFatTreeAsync.coreSwitch[0].eth[1].encap pauseSent:count 0
attr title "pause sent, count"
scalar KFatTreeAsync.coreSwitch[0].eth[1].encap pauseSent:sum 0
attr title "pause sent, sum"
scalar KFatTreeAsync.coreSwitch[0].eth[1].encap decapPk:count 268
attr interpolationmode none
attr source decapPk
attr title "packets decapsulated, count"
scalar KFatTreeAsync.coreSwitch[0].eth[1].encap decapPk:sum(packetBytes) 340040
attr interpolationmode none
attr source decapPk
attr title "packets decapsulated, sum(packetBytes)"
scalar KFatTreeAsync.coreSwitch[0].eth[1].encap encapPk:count 263
attr interpolationmode none
attr source encapPk
attr title "packets encapsulated, count"
scalar KFatTreeAsync.coreSwitch[0].eth[1].encap encapPk:sum(packetBytes) 334864
attr interpolationmode none
attr source encapPk
attr title "packets encapsulated, sum(packetBytes)"
scalar KFatTreeAsync.coreSwitch[0].eth[2].mac.queue packetPopped:count 267
attr interpolationmode none
attr title "packet popped, count"
scalar KFatTreeAsync.coreSwitch[0].eth[2].mac.queue packetPopped:sum(packetBytes) 344800
attr interpolationmode none
attr title "packet popped, sum(packetBytes)"
statistic KFatTreeAsync.coreSwitch[0].eth[2].mac.queue queueingTime:histogram
field count 267
field mean 4.314606741573e-10
field stddev 1.2149812497967e-09
field min 0
field max 3.84e-09
field sum 1.152e-07
field sqrsum 4.42368e-16
attr interpolationmode none
attr source queueingTime(packetPopped)
attr title "queueing times, histogram"
attr unit s
bin	-inf	0
bin	-0.5	0
bin	-0.48	0
bin	-0.46	0
bin	-0.44	0
bin	-0.42	0
bin	-0.4	0
bin	-0.38	0
bin	-0.36	0
bin	-0.34	0
bin	-0.32	0
bin	-0.3	0
bin	-0.28	0
bin	-0.26	0
bin	-0.24	0
bin	-0.22	0
bin	-0.2	0
bin	-0.18	0
bin	-0.16	0
bin	-0.14	0
bin	-0.12	0
bin	-0.1	0
bin	-0.08	0
bin	-0.06	0
bin	-0.04	0
bin	-0.02	0
bin	0	267
bin	0.02	0
bin	0.04	0
bin	0.06	0
bin	0.08	0
bin	0.1	0
bin	0.12	0
bin	0.14	0
bin	0.16	0
bin	0.18	0
bin	0.2	0
bin	0.22	0
bin	0.24	0
bin	0.26	0
bin	0.28	0
bin	0.3	0
bin	0.32	0
bin	0.34	0
bin	0.36	0
bin	0.38	0
bin	0.4	0
bin	0.42	0
bin	0.44	0
bin	0.46	0
bin	0.48	0
bin	0.5	0
scalar KFatTreeAsync.coreSwitch[0].eth[2].mac.queue queueLength:max 1
attr interpolationmode sample-hold
attr source "count(packetPushed) - count(packetPopped) - count(packetRemoved) - count(packetDropped)"
attr title "queue length, max"
scalar KFatTreeAsync.coreSwitch[0].eth[2].mac.queue queueLength:timeavg 4.6078619528794e-08
attr interpolationmode sample-hold
attr source "count(packetPushed) - count(packetPopped) - count(packetRemoved) - count(packetDropped)"
attr title "queue length, timeavg"
scalar KFatTreeAsync.coreSwitch[0].eth[2].mac.queue packetPushed:count 267
attr interpolationmode none
attr title "packet pushed, count"
scalar KFatTreeAsync.coreSwitch[0].eth[2].mac.queue packetPushed:sum(packetBytes) 344800
attr interpolationmode none
attr title "packet pushed, sum(packetBytes)"
scalar KFatTreeAsync.coreSwitch[0].eth[2].mac.queue packetDropQueueOverflow:count 0
attr interpolationmode none
attr source packetDropReasonIsQueueOverflow(packetDropped)
attr title "packet drops: queue overflow, count"
scalar KFatTreeAsync.coreSwitch[0].eth[2].mac.queue packetDropQueueOverflow:sum(packetBytes) 0
attr interpolationmode none
attr source packetDropReasonIsQueueOverflow(packetDropped)
attr title "packet drops: queue overflow, sum(packetBytes)"
scalar KFatTreeAsync.coreSwitch[0].eth[2].mac.queue packetRemoved:count 0
attr interpolationmode none
attr title "packets removed, count"
scalar KFatTreeAsync.coreSwitch[0].eth[2].mac.queue packetRemoved:sum(packetBytes) 0
attr interpolationmode none
attr title "packets removed, sum(packetBytes)"
scalar KFatTreeAsync.coreSwitch[0].eth[2].mac "simulated time" 2.50008370144
scalar KFatTreeAsync.coreSwitch[0].eth[2].mac full-duplex 1
scalar KFatTreeAsync.coreSwitch[0].eth[2].mac "frames/sec sent" 106.7964243942
scalar KFatTreeAsync.coreSwitch[0].eth[2].mac "frames/sec rcvd" 105.59646456954
scalar KFatTreeAsync.coreSwitch[0].eth[2].mac "bits/sec sent" 1103323.0601084
scalar KFatTreeAsync.coreSwitch[0].eth[2].mac "bits/sec rcvd" 1086939.6086358
scalar KFatTreeAsync.coreSwitch[0].eth[2].mac "rx channel idle (%)" 100
scalar KFatTreeAsync.coreSwitch[0].eth[2].mac "rx channel utilization (%)" 0
scalar KFatTreeAsync.coreSwitch[0].eth[2].mac rxPausePkUnits:count 0
attr interpolationmode none
attr title "pause units received, count"
scalar KFatTreeAsync.coreSwitch[0].eth[2].mac rxPausePkUnits:sum 0
attr interpolationmode none
attr title "pause units received, sum"
scalar KFatTreeAsync.coreSwitch[0].eth[2].mac txPausePkUnits:count 0
attr interpolationmode none
attr title "pause units sent, count"
scalar KFatTreeAsync.coreSwitch[0].eth[2].mac txPausePkUnits:sum 0
attr interpolationmode none
attr title "pause units sent, sum"
scalar KFatTreeAsync.coreSwitch[0].eth[2].mac rxPkOk:count 264
attr interpolationmode none
attr source rxPkOk
attr title "packets received OK, count"
scalar KFatTreeAsync.coreSwitch[0].eth[2].mac rxPkOk:sum(packetBytes) 339680
attr interpolationmode none
attr source rxPkOk
attr title "packets received OK, sum(packetBytes)"
scalar KFatTreeAsync.coreSwitch[0].eth[2].mac txPk:count 267
attr interpolationmode none
attr source packetSentToLower
attr title "packets transmitted, count"
scalar KFatTreeAsync.coreSwitch[0].eth[2].mac txPk:sum(packetBytes) 344800
attr interpolationmode none
attr source packetSentToLower
attr title "packets transmitted, sum(packetBytes)"
scalar KFatTreeAsync.coreSwitch[0].eth[2].mac packetReceivedFromUpper:count 267
attr interpolationmode none
attr source packetReceivedFromUpper
attr title "packet bytes from higher layer, count"
scalar KFatTreeAsync.coreSwitch[0].eth[2].mac packetReceivedFromUpper:sum(packetBytes) 344782
attr interpolationmode none
attr source packetReceivedFromUpper
attr title "packet bytes from higher layer, sum(packetBytes)"
scalar KFatTreeAsync.coreSwitch[0].eth[2].mac passedUpPk:count 264
attr interpolationmode none
attr source packetSentToUpper
attr title "packets passed to higher layer, count"
scalar KFatTreeAsync.coreSwitch[0].eth[2].mac passedUpPk:sum(packetBytes) 339680
attr interpolationmode none
attr source packetSentToUpper
attr title "packets passed to higher layer, sum(packetBytes)"
scalar KFatTreeAsync.coreSwitch[0].eth[2].mac packetDropIncorrectlyReceived:count 0
attr interpolationmode none
attr source packetDropReasonIsIncorrectlyReceived(packetDropped)
attr title "packet drop: incorrectly received, count"
scalar KFatTreeAsync.coreSwitch[0].eth[2].mac packetDropIncorrectlyReceived:sum(packetBytes) 0
attr interpolationmode none
attr source packetDropReasonIsIncorrectlyReceived(packetDropped)
attr title "packet drop: incorrectly received, sum(packetBytes)"
scalar KFatTreeAsync.coreSwitch[0].eth[2].mac packetDropInterfaceDown:count 0
attr interpolationmode none
attr source packetDropReasonIsInterfaceDown(packetDropped)
attr title "packet drop: interface down, count"
scalar KFatTreeAsync.coreSwitch[0].eth[2].mac packetDropInterfaceDown:sum(packetBytes) 0
attr interpolationmode none
attr source packetDropReasonIsInterfaceDown(packetDropped)
attr title "packet drop: interface down, sum(packetBytes)"
scalar KFatTreeAsync.coreSwitch[0].eth[2].mac packetDropNotAddressedToUs:count 0
attr interpolationmode none
attr source packetDropReasonIsNotAddressedToUs(packetDropped)
attr title "packet drop: not addressed to us, count"
scalar KFatTreeAsync.coreSwitch[0].eth[2].mac packetDropNotAddressedToUs:sum(packetBytes) 0
attr interpolationmode none
attr source packetDropReasonIsNotAddressedToUs(packetDropped)
attr title "packet drop: not addressed to us, sum(packetBytes)"
scalar KFatTreeAsync.coreSwitch[0].eth[2].encap pauseSent:count 0
attr title "pause sent, count"
scalar KFatTreeAsync.coreSwitch[0].eth[2].encap pauseSent:sum 0
attr title "pause sent, sum"
scalar KFatTreeAsync.coreSwitch[0].eth[2].encap decapPk:count 264
attr interpolationmode none
attr source decapPk
attr title "packets decapsulated, count"
scalar KFatTreeAsync.coreSwitch[0].eth[2].encap decapPk:sum(packetBytes) 334928
attr interpolationmode none
attr source decapPk
attr title "packets decapsulated, sum(packetBytes)"
scalar KFatTreeAsync.coreSwitch[0].eth[2].encap encapPk:count 267
attr interpolationmode none
attr source encapPk
attr title "packets encapsulated, count"
scalar KFatTreeAsync.coreSwitch[0].eth[2].encap encapPk:sum(packetBytes) 339976
attr interpolationmode none
attr source encapPk
attr title "packets encapsulated, sum(packetBytes)"
scalar KFatTreeAsync.coreSwitch[0].eth[3].mac.queue packetPopped:count 253
attr interpolationmode none
attr title "packet popped, count"
scalar KFatTreeAsync.coreSwitch[0].eth[3].mac.queue packetPopped:sum(packetBytes) 326656
attr interpolationmode none
attr title "packet popped, sum(packetBytes)"
statistic KFatTreeAsync.coreSwitch[0].eth[3].mac.queue queueingTime:histogram
field count 253
field mean 2.0329486166008e-08
field stddev 4.6393339544594e-08
field min 0
field max 2.1056e-07
field sum 5.14336e-06
field sqrsum 6.469520384e-13
attr interpolationmode none
attr source queueingTime(packetPopped)
attr title "queueing times, histogram"
attr unit s
bin	-inf	0
bin	0	209
bin	5e-09	0
bin	1e-08	0
bin	1.5e-08	0
bin	2e-08	0
bin	2.5e-08	0
bin	3e-08	0
bin	3.5e-08	0
bin	4e-08	0
bin	4.5e-08	0
bin	5e-08	0
bin	5.5e-08	0
bin	6e-08	0
bin	6.5e-08	0
bin	7e-08	0
bin	7.5e-08	0
bin	8e-08	0
bin	8.5e-08	0
bin	9e-08	1
bin	9.5e-08	0
bin	1e-07	0
bin	1.05e-07	38
bin	1.1e-07	0
bin	1.15e-07	0
bin	1.2e-07	0
bin	1.25e-07	0
bin	1.3e-07	0
bin	1.35e-07	0
bin	1.4e-07	0
bin	1.45e-07	0
bin	1.5e-07	0
bin	1.55e-07	0
bin	1.6e-07	0
bin	1.65e-07	0
bin	1.7e-07	0
bin	1.75e-07	0
bin	1.8e-07	0
bin	1.85e-07	0
bin	1.9e-07	0
bin	1.95e-07	1
bin	2e-07	0
bin	2.05e-07	0
bin	2.1e-07	4
bin	2.15e-07	0
bin	2.2e-07	0
bin	2.25e-07	0
bin	2.3e-07	0
bin	2.35e-07	0
bin	2.4e-07	0
bin	2.45e-07	0
bin	2.5e-07	0
bin	2.55e-07	0
bin	2.6e-07	0
bin	2.65e-07	0
scalar KFatTreeAsync.coreSwitch[0].eth[3].mac.queue queueLength:max 2
attr interpolationmode sample-hold
attr source "count(packetPushed) - count(packetPopped) - count(packetRemoved) - count(packetDropped)"
attr title "queue length, max"
scalar KFatTreeAsync.coreSwitch[0].eth[3].mac.queue queueLength:timeavg 2.0572858311483e-06
attr interpolationmode sample-hold
attr source "count(packetPushed) - count(packetPopped) - count(packetRemoved) - count(packetDropped)"
attr title "queue length, timeavg"
scalar KFatTreeAsync.coreSwitch[0].eth[3].mac.queue packetPushed:count 253
attr interpolationmode none
attr title "packet pushed, count"
scalar KFatTreeAsync.coreSwitch[0].eth[3].mac.queue packetPushed:sum(packetBytes) 326656
attr interpolationmode none
attr title "packet pushed, sum(packetBytes)"
scalar KFatTreeAsync.coreSwitch[0].eth[3].mac.queue packetDropQueueOverflow:count 0
attr interpolationmode none
attr source packetDropReasonIsQueueOverflow(packetDropped)
attr title "packet drops: queue overflow, count"
scalar KFatTreeAsync.coreSwitch[0].eth[3].mac.queue packetDropQueueOverflow:sum(packetBytes) 0
attr interpolationmode none
attr source packetDropReasonIsQueueOverflow(packetDropped)
attr title "packet drops: queue overflow, sum(packetBytes)"
scalar KFatTreeAsync.coreSwitch[0].eth[3].mac.queue packetRemoved:count 0
attr interpolationmode none
attr title "packets removed, count"
scalar KFatTreeAsync.coreSwitch[0].eth[3].mac.queue packetRemoved:sum(packetBytes) 0
attr interpolationmode none
attr title "packets removed, sum(packetBytes)"
scalar KFatTreeAsync.coreSwitch[0].eth[3].mac "simulated time" 2.50008370144
scalar KFatTreeAsync.coreSwitch[0].eth[3].mac full-duplex 1
scalar KFatTreeAsync.coreSwitch[0].eth[3].mac "frames/sec sent" 100.79662527093
scalar KFatTreeAsync.coreSwitch[0].eth[3].mac "frames/sec rcvd" 99.196678838055
scalar KFatTreeAsync.coreSwitch[0].eth[3].mac "bits/sec sent" 1041117.1427984
scalar KFatTreeAsync.coreSwitch[0].eth[3].mac "bits/sec rcvd" 1020586.6301718
scalar KFatTreeAsync.coreSwitch[0].eth[3].mac "rx channel idle (%)" 100
scalar KFatTreeAsync.coreSwitch[0].eth[3].mac "rx channel utilization (%)" 0
scalar KFatTreeAsync.coreSwitch[0].eth[3].mac rxPausePkUnits:count 0
attr interpolationmode none
attr title "pause units received, count"
scalar KFatTreeAsync.coreSwitch[0].eth[3].mac rxPausePkUnits:sum 0
attr interpolationmode none
attr title "pause units received, sum"
scalar KFatTreeAsync.coreSwitch[0].eth[3].mac txPausePkUnits:count 0
attr interpolationmode none
attr title "pause units sent, count"
scalar KFatTreeAsync.coreSwitch[0].eth[3].mac txPausePkUnits:sum 0
attr interpolationmode none
attr title "pause units sent, sum"
scalar KFatTreeAsync.coreSwitch[0].eth[3].mac rxPkOk:count 248
attr interpolationmode none
attr source rxPkOk
attr title "packets received OK, count"
scalar KFatTreeAsync.coreSwitch[0].eth[3].mac rxPkOk:sum(packetBytes) 318944
attr interpolationmode none
attr source rxPkOk
attr title "packets received OK, sum(packetBytes)"
scalar KFatTreeAsync.coreSwitch[0].eth[3].mac txPk:count 252
attr interpolationmode none
attr source packetSentToLower
attr title "packets transmitted, count"
scalar KFatTreeAsync.coreSwitch[0].eth[3].mac txPk:sum(packetBytes) 325360
attr interpolationmode none
attr source packetSentToLower
attr title "packets transmitted, sum(packetBytes)"
scalar KFatTreeAsync.coreSwitch[0].eth[3].mac packetReceivedFromUpper:count 253
attr interpolationmode none
attr source packetReceivedFromUpper
attr title "packet bytes from higher layer, count"
scalar KFatTreeAsync.coreSwitch[0].eth[3].mac packetReceivedFromUpper:sum(packetBytes) 326638
attr interpolationmode none
attr source packetReceivedFromUpper
attr title "packet bytes from higher layer, sum(packetBytes)"
scalar KFatTreeAsync.coreSwitch[0].eth[3].mac passedUpPk:count 248
attr interpolationmode none
attr source packetSentToUpper
attr title "packets passed to higher layer, count"
scalar KFatTreeAsync.coreSwitch[0].eth[3].mac passedUpPk:sum(packetBytes) 318944
attr interpolationmode none
attr source packetSentToUpper
attr title "packets passed to higher layer, sum(packetBytes)"
scalar KFatTreeAsync.coreSwitch[0].eth[3].mac packetDropIncorrectlyReceived:count 0
attr interpolationmode none
attr source packetDropReasonIsIncorrectlyReceived(packetDropped)
attr title "packet drop: incorrectly received, count"
scalar KFatTreeAsync.coreSwitch[0].eth[3].mac packetDropIncorrectlyReceived:sum(packetBytes) 0
attr interpolationmode none
attr source packetDropReasonIsIncorrectlyReceived(packetDropped)
attr title "packet drop: incorrectly received, sum(packetBytes)"
scalar KFatTreeAsync.coreSwitch[0].eth[3].mac packetDropInterfaceDown:count 0
attr interpolationmode none
attr source packetDropReasonIsInterfaceDown(packetDropped)
attr title "packet drop: interface down, count"
scalar KFatTreeAsync.coreSwitch[0].eth[3].mac packetDropInterfaceDown:sum(packetBytes) 0
attr interpolationmode none
attr source packetDropReasonIsInterfaceDown(packetDropped)
attr title "packet drop: interface down, sum(packetBytes)"
scalar KFatTreeAsync.coreSwitch[0].eth[3].mac packetDropNotAddressedToUs:count 0
attr interpolationmode none
attr source packetDropReasonIsNotAddressedToUs(packetDropped)
attr title "packet drop: not addressed to us, count"
scalar KFatTreeAsync.coreSwitch[0].eth[3].mac packetDropNotAddressedToUs:sum(packetBytes) 0
attr interpolationmode none
attr source packetDropReasonIsNotAddressedToUs(packetDropped)
attr title "packet drop: not addressed to us, sum(packetBytes)"
scalar KFatTreeAsync.coreSwitch[0].eth[3].encap pauseSent:count 0
attr title "pause sent, count"
scalar KFatTreeAsync.coreSwitch[0].eth[3].encap pauseSent:sum 0
attr title "pause sent, sum"
scalar KFatTreeAsync.coreSwitch[0].eth[3].encap decapPk:count 248
attr interpolationmode none
attr source decapPk
attr title "packets decapsulated, count"
scalar KFatTreeAsync.coreSwitch[0].eth[3].encap decapPk:sum(packetBytes) 314480
attr interpolationmode none
attr source decapPk
attr title "packets decapsulated, sum(packetBytes)"
scalar KFatTreeAsync.coreSwitch[0].eth[3].encap encapPk:count 253
attr interpolationmode none
attr source encapPk
attr title "packets encapsulated, count"
scalar KFatTreeAsync.coreSwitch[0].eth[3].encap encapPk:sum(packetBytes) 322084
attr interpolationmode none
attr source encapPk
attr title "packets encapsulated, sum(packetBytes)"
scalar KFatTreeAsync.coreSwitch[0].ipv4.ip packetDropAddressResolutionFailed:count 0
attr interpolationmode none
attr source packetDropReasonIsAddressResolutionFailed(packetDropped)
attr title "packet drop: address resolution failed, count"
scalar KFatTreeAsync.coreSwitch[0].ipv4.ip packetDropAddressResolutionFailed:sum(packetBytes) 0
attr interpolationmode none
attr source packetDropReasonIsAddressResolutionFailed(packetDropped)
attr title "packet drop: address resolution failed, sum(packetBytes)"
scalar KFatTreeAsync.coreSwitch[0].ipv4.ip packetDropHopLimitReached:count 0
attr interpolationmode none
attr source packetDropReasonIsHopLimitReached(packetDropped)
attr title "packet drop: hop limit reached, count"
scalar KFatTreeAsync.coreSwitch[0].ipv4.ip packetDropHopLimitReached:sum(packetBytes) 0
attr interpolationmode none
attr source packetDropReasonIsHopLimitReached(packetDropped)
attr title "packet drop: hop limit reached, sum(packetBytes)"
scalar KFatTreeAsync.coreSwitch[0].ipv4.ip packetDropForwardingDisabled:count 0
attr interpolationmode none
attr source packetDropReasonIsForwardingDisabled(packetDropped)
attr title "packet drop: forwarding disabled, count"
scalar KFatTreeAsync.coreSwitch[0].ipv4.ip packetDropForwardingDisabled:sum(packetBytes) 0
attr interpolationmode none
attr source packetDropReasonIsForwardingDisabled(packetDropped)
attr title "packet drop: forwarding disabled, sum(packetBytes)"
scalar KFatTreeAsync.coreSwitch[0].ipv4.ip packetDropNoInterfaceFound:count 0
attr interpolationmode none
attr source packetDropReasonIsNoInterfaceFound(packetDropped)
attr title "packet drop: no interface found, count"
scalar KFatTreeAsync.coreSwitch[0].ipv4.ip packetDropNoInterfaceFound:sum(packetBytes) 0
attr interpolationmode none
attr source packetDropReasonIsNoInterfaceFound(packetDropped)
attr title "packet drop: no interface found, sum(packetBytes)"
scalar KFatTreeAsync.coreSwitch[0].ipv4.ip packetDropNoRouteFound:count 0
attr interpolationmode none
attr source packetDropReasonIsNoRouteFound(packetDropped)
attr title "packet drop: no route found, count"
scalar KFatTreeAsync.coreSwitch[0].ipv4.ip packetDropNoRouteFound:sum(packetBytes) 0
attr interpolationmode none
attr source packetDropReasonIsNoRouteFound(packetDropped)
attr title "packet drop: no route found, sum(packetBytes)"
scalar KFatTreeAsync.coreSwitch[0].ipv4.ip packetDropUndefined:count 0
attr interpolationmode none
attr source packetDropReasonIsUndefined(packetDropped)
attr title "packet drop: undefined, count"
scalar KFatTreeAsync.coreSwitch[0].ipv4.ip packetDropUndefined:sum(packetBytes) 0
attr interpolationmode none
attr source packetDropReasonIsUndefined(packetDropped)
attr title "packet drop: undefined, sum(packetBytes)"
scalar KFatTreeAsync.coreSwitch[0].ipv4.arp arpResolutionFailed:count 0
attr title "ARP failed resolutions, count"
scalar KFatTreeAsync.coreSwitch[0].ipv4.arp arpResolutionCompleted:count 4
attr title "ARP completed resolutions, count"
scalar KFatTreeAsync.coreSwitch[0].ipv4.arp arpResolutionInitiated:count 3
attr title "ARP initiated resolutions, count"
scalar KFatTreeAsync.coreSwitch[0].ipv4.arp arpReplySent:count 1
attr source arpReplySent
attr title "ARP replies sent, count"
scalar KFatTreeAsync.coreSwitch[0].ipv4.arp arpReplySent:sum(packetBytes) 28
attr source arpReplySent
attr title "ARP replies sent, sum(packetBytes)"
scalar KFatTreeAsync.coreSwitch[0].ipv4.arp arpRequestSent:count 3
attr source arpRequestSent
attr title "ARP request sent, count"
scalar KFatTreeAsync.coreSwitch[0].ipv4.arp arpRequestSent:sum(packetBytes) 84
attr source arpRequestSent
attr title "ARP request sent, sum(packetBytes)"
scalar KFatTreeAsync.coreSwitch[1].lo[0].lo rcvdPkFromHl:count 0
attr interpolationmode none
attr source packetReceivedFromUpper
attr title "packets received from higher layer, count"
scalar KFatTreeAsync.coreSwitch[1].lo[0].lo rcvdPkFromHl:sum(packetBytes) 0
attr interpolationmode none
attr source packetReceivedFromUpper
attr title "packets received from higher layer, sum(packetBytes)"
scalar KFatTreeAsync.coreSwitch[1].lo[0].lo passedUpPk:count 0
attr interpolationmode none
attr source packetSentToUpper
attr title "packets passed to higher layer, count"
scalar KFatTreeAsync.coreSwitch[1].lo[0].lo passedUpPk:sum(packetBytes) 0
attr interpolationmode none
attr source packetSentToUpper
attr title "packets passed to higher layer, sum(packetBytes)"
scalar KFatTreeAsync.coreSwitch[1].eth[0].mac.queue packetPopped:count 0
attr interpolationmode none
attr title "packet popped, count"
scalar KFatTreeAsync.coreSwitch[1].eth[0].mac.queue packetPopped:sum(packetBytes) 0
attr interpolationmode none
attr title "packet popped, sum(packetBytes)"
statistic KFatTreeAsync.coreSwitch[1].eth[0].mac.queue queueingTime:histogram
field count 0
field mean nan
field stddev nan
field min nan
field max nan
field sum 0
field sqrsum 0
attr interpolationmode none
attr source queueingTime(packetPopped)
attr title "queueing times, histogram"
attr unit s
bin	-inf	0
bin	0	0
bin	1	0
scalar KFatTreeAsync.coreSwitch[1].eth[0].mac.queue queueLength:max nan
attr interpolationmode sample-hold
attr source "count(packetPushed) - count(packetPopped) - count(packetRemoved) - count(packetDropped)"
attr title "queue length, max"
scalar KFatTreeAsync.coreSwitch[1].eth[0].mac.queue queueLength:timeavg nan
attr interpolationmode sample-hold
attr source "count(packetPushed) - count(packetPopped) - count(packetRemoved) - count(packetDropped)"
attr title "queue length, timeavg"
scalar KFatTreeAsync.coreSwitch[1].eth[0].mac.queue packetPushed:count 0
attr interpolationmode none
attr title "packet pushed, count"
scalar KFatTreeAsync.coreSwitch[1].eth[0].mac.queue packetPushed:sum(packetBytes) 0
attr interpolationmode none
attr title "packet pushed, sum(packetBytes)"
scalar KFatTreeAsync.coreSwitch[1].eth[0].mac.queue packetDropQueueOverflow:count 0
attr interpolationmode none
attr source packetDropReasonIsQueueOverflow(packetDropped)
attr title "packet drops: queue overflow, count"
scalar KFatTreeAsync.coreSwitch[1].eth[0].mac.queue packetDropQueueOverflow:sum(packetBytes) 0
attr interpolationmode none
attr source packetDropReasonIsQueueOverflow(packetDropped)
attr title "packet drops: queue overflow, sum(packetBytes)"
scalar KFatTreeAsync.coreSwitch[1].eth[0].mac.queue packetRemoved:count 0
attr interpolationmode none
attr title "packets removed, count"
scalar KFatTreeAsync.coreSwitch[1].eth[0].mac.queue packetRemoved:sum(packetBytes) 0
attr interpolationmode none
attr title "packets removed, sum(packetBytes)"
scalar KFatTreeAsync.coreSwitch[1].eth[0].mac "simulated time" 2.50008370144
scalar KFatTreeAsync.coreSwitch[1].eth[0].mac full-duplex 1
scalar KFatTreeAsync.coreSwitch[1].eth[0].mac "frames/sec sent" 0
scalar KFatTreeAsync.coreSwitch[1].eth[0].mac "frames/sec rcvd" 0.39998660821796
scalar KFatTreeAsync.coreSwitch[1].eth[0].mac "bits/sec sent" 0
scalar KFatTreeAsync.coreSwitch[1].eth[0].mac "bits/sec rcvd" 204.7931434076
scalar KFatTreeAsync.coreSwitch[1].eth[0].mac "rx channel idle (%)" 100
scalar KFatTreeAsync.coreSwitch[1].eth[0].mac "rx channel utilization (%)" 0
scalar KFatTreeAsync.coreSwitch[1].eth[0].mac rxPausePkUnits:count 0
attr interpolationmode none
attr title "pause units received, count"
scalar KFatTreeAsync.coreSwitch[1].eth[0].mac rxPausePkUnits:sum 0
attr interpolationmode none
attr title "pause units received, sum"
scalar KFatTreeAsync.coreSwitch[1].eth[0].mac txPausePkUnits:count 0
attr interpolationmode none
attr title "pause units sent, count"
scalar KFatTreeAsync.coreSwitch[1].eth[0].mac txPausePkUnits:sum 0
attr interpolationmode none
attr title "pause units sent, sum"
scalar KFatTreeAsync.coreSwitch[1].eth[0].mac rxPkOk:count 1
attr interpolationmode none
attr source rxPkOk
attr title "packets received OK, count"
scalar KFatTreeAsync.coreSwitch[1].eth[0].mac rxPkOk:sum(packetBytes) 64
attr interpolationmode none
attr source rxPkOk
attr title "packets received OK, sum(packetBytes)"
scalar KFatTreeAsync.coreSwitch[1].eth[0].mac txPk:count 0
attr interpolationmode none
attr source packetSentToLower
attr title "packets transmitted, count"
scalar KFatTreeAsync.coreSwitch[1].eth[0].mac txPk:sum(packetBytes) 0
attr interpolationmode none
attr source packetSentToLower
attr title "packets transmitted, sum(packetBytes)"
scalar KFatTreeAsync.coreSwitch[1].eth[0].mac packetReceivedFromUpper:count 0
attr interpolationmode none
attr source packetReceivedFromUpper
attr title "packet bytes from higher layer, count"
scalar KFatTreeAsync.coreSwitch[1].eth[0].mac packetReceivedFromUpper:sum(packetBytes) 0
attr interpolationmode none
attr source packetReceivedFromUpper
attr title "packet bytes from higher layer, sum(packetBytes)"
scalar KFatTreeAsync.coreSwitch[1].eth[0].mac passedUpPk:count 1
attr interpolationmode none
attr source packetSentToUpper
attr title "packets passed to higher layer, count"
scalar KFatTreeAsync.coreSwitch[1].eth[0].mac passedUpPk:sum(packetBytes) 64
attr interpolationmode none
attr source packetSentToUpper
attr title "packets passed to higher layer, sum(packetBytes)"
scalar KFatTreeAsync.coreSwitch[1].eth[0].mac packetDropIncorrectlyReceived:count 0
attr interpolationmode none
attr source packetDropReasonIsIncorrectlyReceived(packetDropped)
attr title "packet drop: incorrectly received, count"
scalar KFatTreeAsync.coreSwitch[1].eth[0].mac packetDropIncorrectlyReceived:sum(packetBytes) 0
attr interpolationmode none
attr source packetDropReasonIsIncorrectlyReceived(packetDropped)
attr title "packet drop: incorrectly received, sum(packetBytes)"
scalar KFatTreeAsync.coreSwitch[1].eth[0].mac packetDropInterfaceDown:count 0
attr interpolationmode none
attr source packetDropReasonIsInterfaceDown(packetDropped)
attr title "packet drop: interface down, count"
scalar KFatTreeAsync.coreSwitch[1].eth[0].mac packetDropInterfaceDown:sum(packetBytes) 0
attr interpolationmode none
attr source packetDropReasonIsInterfaceDown(packetDropped)
attr title "packet drop: interface down, sum(packetBytes)"
scalar KFatTreeAsync.coreSwitch[1].eth[0].mac packetDropNotAddressedToUs:count 0
attr interpolationmode none
attr source packetDropReasonIsNotAddressedToUs(packetDropped)
attr title "packet drop: not addressed to us, count"
scalar KFatTreeAsync.coreSwitch[1].eth[0].mac packetDropNotAddressedToUs:sum(packetBytes) 0
attr interpolationmode none
attr source packetDropReasonIsNotAddressedToUs(packetDropped)
attr title "packet drop: not addressed to us, sum(packetBytes)"
scalar KFatTreeAsync.coreSwitch[1].eth[0].encap pauseSent:count 0
attr title "pause sent, count"
scalar KFatTreeAsync.coreSwitch[1].eth[0].encap pauseSent:sum 0
attr title "pause sent, sum"
scalar KFatTreeAsync.coreSwitch[1].eth[0].encap decapPk:count 1
attr interpolationmode none
attr source decapPk
attr title "packets decapsulated, count"
scalar KFatTreeAsync.coreSwitch[1].eth[0].encap decapPk:sum(packetBytes) 46
attr interpolationmode none
attr source decapPk
attr title "packets decapsulated, sum(packetBytes)"
scalar KFatTreeAsync.coreSwitch[1].eth[0].encap encapPk:count 0
attr interpolationmode none
attr source encapPk
attr title "packets encapsulated, count"
scalar KFatTreeAsync.coreSwitch[1].eth[0].encap encapPk:sum(packetBytes) 0
attr interpolationmode none
attr source encapPk
attr title "packets encapsulated, sum(packetBytes)"
scalar KFatTreeAsync.coreSwitch[1].eth[1].mac.queue packetPopped:count 0
attr interpolationmode none
attr title "packet popped, count"
scalar KFatTreeAsync.coreSwitch[1].eth[1].mac.queue packetPopped:sum(packetBytes) 0
attr interpolationmode none
attr title "packet popped, sum(packetBytes)"
statistic KFatTreeAsync.coreSwitch[1].eth[1].mac.queue queueingTime:histogram
field count 0
field mean nan
field stddev nan
field min nan
field max nan
field sum 0
field sqrsum 0
attr interpolationmode none
attr source queueingTime(packetPopped)
attr title "queueing times, histogram"
attr unit s
bin	-inf	0
bin	0	0
bin	1	0
scalar KFatTreeAsync.coreSwitch[1].eth[1].mac.queue queueLength:max nan
attr interpolationmode sample-hold
attr source "count(packetPushed) - count(packetPopped) - count(packetRemoved) - count(packetDropped)"
attr title "queue length, max"
scalar KFatTreeAsync.coreSwitch[1].eth[1].mac.queue queueLength:timeavg nan
attr interpolationmode sample-hold
attr source "count(packetPushed) - count(packetPopped) - count(packetRemoved) - count(packetDropped)"
attr title "queue length, timeavg"
scalar KFatTreeAsync.coreSwitch[1].eth[1].mac.queue packetPushed:count 0
attr interpolationmode none
attr title "packet pushed, count"
scalar KFatTreeAsync.coreSwitch[1].eth[1].mac.queue packetPushed:sum(packetBytes) 0
attr interpolationmode none
attr title "packet pushed, sum(packetBytes)"
scalar KFatTreeAsync.coreSwitch[1].eth[1].mac.queue packetDropQueueOverflow:count 0
attr interpolationmode none
attr source packetDropReasonIsQueueOverflow(packetDropped)
attr title "packet drops: queue overflow, count"
scalar KFatTreeAsync.coreSwitch[1].eth[1].mac.queue packetDropQueueOverflow:sum(packetBytes) 0
attr interpolationmode none
attr source packetDropReasonIsQueueOverflow(packetDropped)
attr title "packet drops: queue overflow, sum(packetBytes)"
scalar KFatTreeAsync.coreSwitch[1].eth[1].mac.queue packetRemoved:count 0
attr interpolationmode none
attr title "packets removed, count"
scalar KFatTreeAsync.coreSwitch[1].eth[1].mac.queue packetRemoved:sum(packetBytes) 0
attr interpolationmode none
attr title "packets removed, sum(packetBytes)"
scalar KFatTreeAsync.coreSwitch[1].eth[1].mac "simulated time" 2.50008370144
scalar KFatTreeAsync.coreSwitch[1].eth[1].mac full-duplex 1
scalar KFatTreeAsync.coreSwitch[1].eth[1].mac "frames/sec sent" 0
scalar KFatTreeAsync.coreSwitch[1].eth[1].mac "frames/sec rcvd" 0.39998660821796
scalar KFatTreeAsync.coreSwitch[1].eth[1].mac "bits/sec sent" 0
scalar KFatTreeAsync.coreSwitch[1].eth[1].mac "bits/sec rcvd" 204.7931434076
scalar KFatTreeAsync.coreSwitch[1].eth[1].mac "rx channel idle (%)" 100
scalar KFatTreeAsync.coreSwitch[1].eth[1].mac "rx channel utilization (%)" 0
scalar KFatTreeAsync.coreSwitch[1].eth[1].mac rxPausePkUnits:count 0
attr interpolationmode none
attr title "pause units received, count"
scalar KFatTreeAsync.coreSwitch[1].eth[1].mac rxPausePkUnits:sum 0
attr interpolationmode none
attr title "pause units received, sum"
scalar KFatTreeAsync.coreSwitch[1].eth[1].mac txPausePkUnits:count 0
attr interpolationmode none
attr title "pause units sent, count"
scalar KFatTreeAsync.coreSwitch[1].eth[1].mac txPausePkUnits:sum 0
attr interpolationmode none
attr title "pause units sent, sum"
scalar KFatTreeAsync.coreSwitch[1].eth[1].mac rxPkOk:count 1
attr interpolationmode none
attr source rxPkOk
attr title "packets received OK, count"
scalar KFatTreeAsync.coreSwitch[1].eth[1].mac rxPkOk:sum(packetBytes) 64
attr interpolationmode none
attr source rxPkOk
attr title "packets received OK, sum(packetBytes)"
scalar KFatTreeAsync.coreSwitch[1].eth[1].mac txPk:count 0
attr interpolationmode none
attr source packetSentToLower
attr title "packets transmitted, count"
scalar KFatTreeAsync.coreSwitch[1].eth[1].mac txPk:sum(packetBytes) 0
attr interpolationmode none
attr source packetSentToLower
attr title "packets transmitted, sum(packetBytes)"
scalar KFatTreeAsync.coreSwitch[1].eth[1].mac packetReceivedFromUpper:count 0
attr interpolationmode none
attr source packetReceivedFromUpper
attr title "packet bytes from higher layer, count"
scalar KFatTreeAsync.coreSwitch[1].eth[1].mac packetReceivedFromUpper:sum(packetBytes) 0
attr interpolationmode none
attr source packetReceivedFromUpper
attr title "packet bytes from higher layer, sum(packetBytes)"
scalar KFatTreeAsync.coreSwitch[1].eth[1].mac passedUpPk:count 1
attr interpolationmode none
attr source packetSentToUpper
attr title "packets passed to higher layer, count"
scalar KFatTreeAsync.coreSwitch[1].eth[1].mac passedUpPk:sum(packetBytes) 64
attr interpolationmode none
attr source packetSentToUpper
attr title "packets passed to higher layer, sum(packetBytes)"
scalar KFatTreeAsync.coreSwitch[1].eth[1].mac packetDropIncorrectlyReceived:count 0
attr interpolationmode none
attr source packetDropReasonIsIncorrectlyReceived(packetDropped)
attr title "packet drop: incorrectly received, count"
scalar KFatTreeAsync.coreSwitch[1].eth[1].mac packetDropIncorrectlyReceived:sum(packetBytes) 0
attr interpolationmode none
attr source packetDropReasonIsIncorrectlyReceived(packetDropped)
attr title "packet drop: incorrectly received, sum(packetBytes)"
scalar KFatTreeAsync.coreSwitch[1].eth[1].mac packetDropInterfaceDown:count 0
attr interpolationmode none
attr source packetDropReasonIsInterfaceDown(packetDropped)
attr title "packet drop: interface down, count"
scalar KFatTreeAsync.coreSwitch[1].eth[1].mac packetDropInterfaceDown:sum(packetBytes) 0
attr interpolationmode none
attr source packetDropReasonIsInterfaceDown(packetDropped)
attr title "packet drop: interface down, sum(packetBytes)"
scalar KFatTreeAsync.coreSwitch[1].eth[1].mac packetDropNotAddressedToUs:count 0
attr interpolationmode none
attr source packetDropReasonIsNotAddressedToUs(packetDropped)
attr title "packet drop: not addressed to us, count"
scalar KFatTreeAsync.coreSwitch[1].eth[1].mac packetDropNotAddressedToUs:sum(packetBytes) 0
attr interpolationmode none
attr source packetDropReasonIsNotAddressedToUs(packetDropped)
attr title "packet drop: not addressed to us, sum(packetBytes)"
scalar KFatTreeAsync.coreSwitch[1].eth[1].encap pauseSent:count 0
attr title "pause sent, count"
scalar KFatTreeAsync.coreSwitch[1].eth[1].encap pauseSent:sum 0
attr title "pause sent, sum"
scalar KFatTreeAsync.coreSwitch[1].eth[1].encap decapPk:count 1
attr interpolationmode none
attr source decapPk
attr title "packets decapsulated, count"
scalar KFatTreeAsync.coreSwitch[1].eth[1].encap decapPk:sum(packetBytes) 46
attr interpolationmode none
attr source decapPk
attr title "packets decapsulated, sum(packetBytes)"
scalar KFatTreeAsync.coreSwitch[1].eth[1].encap encapPk:count 0
attr interpolationmode none
attr source encapPk
attr title "packets encapsulated, count"
scalar KFatTreeAsync.coreSwitch[1].eth[1].encap encapPk:sum(packetBytes) 0
attr interpolationmode none
attr source encapPk
attr title "packets encapsulated, sum(packetBytes)"
scalar KFatTreeAsync.coreSwitch[1].eth[2].mac.queue packetPopped:count 0
attr interpolationmode none
attr title "packet popped, count"
scalar KFatTreeAsync.coreSwitch[1].eth[2].mac.queue packetPopped:sum(packetBytes) 0
attr interpolationmode none
attr title "packet popped, sum(packetBytes)"
statistic KFatTreeAsync.coreSwitch[1].eth[2].mac.queue queueingTime:histogram
field count 0
field mean nan
field stddev nan
field min nan
field max nan
field sum 0
field sqrsum 0
attr interpolationmode none
attr source queueingTime(packetPopped)
attr title "queueing times, histogram"
attr unit s
bin	-inf	0
bin	0	0
bin	1	0
scalar KFatTreeAsync.coreSwitch[1].eth[2].mac.queue queueLength:max nan
attr interpolationmode sample-hold
attr source "count(packetPushed) - count(packetPopped) - count(packetRemoved) - count(packetDropped)"
attr title "queue length, max"
scalar KFatTreeAsync.coreSwitch[1].eth[2].mac.queue queueLength:timeavg nan
attr interpolationmode sample-hold
attr source "count(packetPushed) - count(packetPopped) - count(packetRemoved) - count(packetDropped)"
attr title "queue length, timeavg"
scalar KFatTreeAsync.coreSwitch[1].eth[2].mac.queue packetPushed:count 0
attr interpolationmode none
attr title "packet pushed, count"
scalar KFatTreeAsync.coreSwitch[1].eth[2].mac.queue packetPushed:sum(packetBytes) 0
attr interpolationmode none
attr title "packet pushed, sum(packetBytes)"
scalar KFatTreeAsync.coreSwitch[1].eth[2].mac.queue packetDropQueueOverflow:count 0
attr interpolationmode none
attr source packetDropReasonIsQueueOverflow(packetDropped)
attr title "packet drops: queue overflow, count"
scalar KFatTreeAsync.coreSwitch[1].eth[2].mac.queue packetDropQueueOverflow:sum(packetBytes) 0
attr interpolationmode none
attr source packetDropReasonIsQueueOverflow(packetDropped)
attr title "packet drops: queue overflow, sum(packetBytes)"
scalar KFatTreeAsync.coreSwitch[1].eth[2].mac.queue packetRemoved:count 0
attr interpolationmode none
attr title "packets removed, count"
scalar KFatTreeAsync.coreSwitch[1].eth[2].mac.queue packetRemoved:sum(packetBytes) 0
attr interpolationmode none
attr title "packets removed, sum(packetBytes)"
scalar KFatTreeAsync.coreSwitch[1].eth[2].mac "simulated time" 2.50008370144
scalar KFatTreeAsync.coreSwitch[1].eth[2].mac full-duplex 1
scalar KFatTreeAsync.coreSwitch[1].eth[2].mac "frames/sec sent" 0
scalar KFatTreeAsync.coreSwitch[1].eth[2].mac "frames/sec rcvd" 0.39998660821796
scalar KFatTreeAsync.coreSwitch[1].eth[2].mac "bits/sec sent" 0
scalar KFatTreeAsync.coreSwitch[1].eth[2].mac "bits/sec rcvd" 204.7931434076
scalar KFatTreeAsync.coreSwitch[1].eth[2].mac "rx channel idle (%)" 100
scalar KFatTreeAsync.coreSwitch[1].eth[2].mac "rx channel utilization (%)" 0
scalar KFatTreeAsync.coreSwitch[1].eth[2].mac rxPausePkUnits:count 0
attr interpolationmode none
attr title "pause units received, count"
scalar KFatTreeAsync.coreSwitch[1].eth[2].mac rxPausePkUnits:sum 0
attr interpolationmode none
attr title "pause units received, sum"
scalar KFatTreeAsync.coreSwitch[1].eth[2].mac txPausePkUnits:count 0
attr interpolationmode none
attr title "pause units sent, count"
scalar KFatTreeAsync.coreSwitch[1].eth[2].mac txPausePkUnits:sum 0
attr interpolationmode none
attr title "pause units sent, sum"
scalar KFatTreeAsync.coreSwitch[1].eth[2].mac rxPkOk:count 1
attr interpolationmode none
attr source rxPkOk
attr title "packets received OK, count"
scalar KFatTreeAsync.coreSwitch[1].eth[2].mac rxPkOk:sum(packetBytes) 64
attr interpolationmode none
attr source rxPkOk
attr title "packets received OK, sum(packetBytes)"
scalar KFatTreeAsync.coreSwitch[1].eth[2].mac txPk:count 0
attr interpolationmode none
attr source packetSentToLower
attr title "packets transmitted, count"
scalar KFatTreeAsync.coreSwitch[1].eth[2].mac txPk:sum(packetBytes) 0
attr interpolationmode none
attr source packetSentToLower
attr title "packets transmitted, sum(packetBytes)"
scalar KFatTreeAsync.coreSwitch[1].eth[2].mac packetReceivedFromUpper:count 0
attr interpolationmode none
attr source packetReceivedFromUpper
attr title "packet bytes from higher layer, count"
scalar KFatTreeAsync.coreSwitch[1].eth[2].mac packetReceivedFromUpper:sum(packetBytes) 0
attr interpolationmode none
attr source packetReceivedFromUpper
attr title "packet bytes from higher layer, sum(packetBytes)"
scalar KFatTreeAsync.coreSwitch[1].eth[2].mac passedUpPk:count 1
attr interpolationmode none
attr source packetSentToUpper
attr title "packets passed to higher layer, count"
scalar KFatTreeAsync.coreSwitch[1].eth[2].mac passedUpPk:sum(packetBytes) 64
attr interpolationmode none
attr source packetSentToUpper
attr title "packets passed to higher layer, sum(packetBytes)"
scalar KFatTreeAsync.coreSwitch[1].eth[2].mac packetDropIncorrectlyReceived:count 0
attr interpolationmode none
attr source packetDropReasonIsIncorrectlyReceived(packetDropped)
attr title "packet drop: incorrectly received, count"
scalar KFatTreeAsync.coreSwitch[1].eth[2].mac packetDropIncorrectlyReceived:sum(packetBytes) 0
attr interpolationmode none
attr source packetDropReasonIsIncorrectlyReceived(packetDropped)
attr title "packet drop: incorrectly received, sum(packetBytes)"
scalar KFatTreeAsync.coreSwitch[1].eth[2].mac packetDropInterfaceDown:count 0
attr interpolationmode none
attr source packetDropReasonIsInterfaceDown(packetDropped)
attr title "packet drop: interface down, count"
scalar KFatTreeAsync.coreSwitch[1].eth[2].mac packetDropInterfaceDown:sum(packetBytes) 0
attr interpolationmode none
attr source packetDropReasonIsInterfaceDown(packetDropped)
attr title "packet drop: interface down, sum(packetBytes)"
scalar KFatTreeAsync.coreSwitch[1].eth[2].mac packetDropNotAddressedToUs:count 0
attr interpolationmode none
attr source packetDropReasonIsNotAddressedToUs(packetDropped)
attr title "packet drop: not addressed to us, count"
scalar KFatTreeAsync.coreSwitch[1].eth[2].mac packetDropNotAddressedToUs:sum(packetBytes) 0
attr interpolationmode none
attr source packetDropReasonIsNotAddressedToUs(packetDropped)
attr title "packet drop: not addressed to us, sum(packetBytes)"
scalar KFatTreeAsync.coreSwitch[1].eth[2].encap pauseSent:count 0
attr title "pause sent, count"
scalar KFatTreeAsync.coreSwitch[1].eth[2].encap pauseSent:sum 0
attr title "pause sent, sum"
scalar KFatTreeAsync.coreSwitch[1].eth[2].encap decapPk:count 1
attr interpolationmode none
attr source decapPk
attr title "packets decapsulated, count"
scalar KFatTreeAsync.coreSwitch[1].eth[2].encap decapPk:sum(packetBytes) 46
attr interpolationmode none
attr source decapPk
attr title "packets decapsulated, sum(packetBytes)"
scalar KFatTreeAsync.coreSwitch[1].eth[2].encap encapPk:count 0
attr interpolationmode none
attr source encapPk
attr title "packets encapsulated, count"
scalar KFatTreeAsync.coreSwitch[1].eth[2].encap encapPk:sum(packetBytes) 0
attr interpolationmode none
attr source encapPk
attr title "packets encapsulated, sum(packetBytes)"
scalar KFatTreeAsync.coreSwitch[1].eth[3].mac.queue packetPopped:count 0
attr interpolationmode none
attr title "packet popped, count"
scalar KFatTreeAsync.coreSwitch[1].eth[3].mac.queue packetPopped:sum(packetBytes) 0
attr interpolationmode none
attr title "packet popped, sum(packetBytes)"
statistic KFatTreeAsync.coreSwitch[1].eth[3].mac.queue queueingTime:histogram
field count 0
field mean nan
field stddev nan
field min nan
field max nan
field sum 0
field sqrsum 0
attr interpolationmode none
attr source queueingTime(packetPopped)
attr title "queueing times, histogram"
attr unit s
bin	-inf	0
bin	0	0
bin	1	0
scalar KFatTreeAsync.coreSwitch[1].eth[3].mac.queue queueLength:max nan
attr interpolationmode sample-hold
attr source "count(packetPushed) - count(packetPopped) - count(packetRemoved) - count(packetDropped)"
attr title "queue length, max"
scalar KFatTreeAsync.coreSwitch[1].eth[3].mac.queue queueLength:timeavg nan
attr interpolationmode sample-hold
attr source "count(packetPushed) - count(packetPopped) - count(packetRemoved) - count(packetDropped)"
attr title "queue length, timeavg"
scalar KFatTreeAsync.coreSwitch[1].eth[3].mac.queue packetPushed:count 0
attr interpolationmode none
attr title "packet pushed, count"
scalar KFatTreeAsync.coreSwitch[1].eth[3].mac.queue packetPushed:sum(packetBytes) 0
attr interpolationmode none
attr title "packet pushed, sum(packetBytes)"
scalar KFatTreeAsync.coreSwitch[1].eth[3].mac.queue packetDropQueueOverflow:count 0
attr interpolationmode none
attr source packetDropReasonIsQueueOverflow(packetDropped)
attr title "packet drops: queue overflow, count"
scalar KFatTreeAsync.coreSwitch[1].eth[3].mac.queue packetDropQueueOverflow:sum(packetBytes) 0
attr interpolationmode none
attr source packetDropReasonIsQueueOverflow(packetDropped)
attr title "packet drops: queue overflow, sum(packetBytes)"
scalar KFatTreeAsync.coreSwitch[1].eth[3].mac.queue packetRemoved:count 0
attr interpolationmode none
attr title "packets removed, count"
scalar KFatTreeAsync.coreSwitch[1].eth[3].mac.queue packetRemoved:sum(packetBytes) 0
attr interpolationmode none
attr title "packets removed, sum(packetBytes)"
scalar KFatTreeAsync.coreSwitch[1].eth[3].mac "simulated time" 2.50008370144
scalar KFatTreeAsync.coreSwitch[1].eth[3].mac full-duplex 1
scalar KFatTreeAsync.coreSwitch[1].eth[3].mac "frames/sec sent" 0
scalar KFatTreeAsync.coreSwitch[1].eth[3].mac "frames/sec rcvd" 0.39998660821796
scalar KFatTreeAsync.coreSwitch[1].eth[3].mac "bits/sec sent" 0
scalar KFatTreeAsync.coreSwitch[1].eth[3].mac "bits/sec rcvd" 204.7931434076
scalar KFatTreeAsync.coreSwitch[1].eth[3].mac "rx channel idle (%)" 100
scalar KFatTreeAsync.coreSwitch[1].eth[3].mac "rx channel utilization (%)" 0
scalar KFatTreeAsync.coreSwitch[1].eth[3].mac rxPausePkUnits:count 0
attr interpolationmode none
attr title "pause units received, count"
scalar KFatTreeAsync.coreSwitch[1].eth[3].mac rxPausePkUnits:sum 0
attr interpolationmode none
attr title "pause units received, sum"
scalar KFatTreeAsync.coreSwitch[1].eth[3].mac txPausePkUnits:count 0
attr interpolationmode none
attr title "pause units sent, count"
scalar KFatTreeAsync.coreSwitch[1].eth[3].mac txPausePkUnits:sum 0
attr interpolationmode none
attr title "pause units sent, sum"
scalar KFatTreeAsync.coreSwitch[1].eth[3].mac rxPkOk:count 1
attr interpolationmode none
attr source rxPkOk
attr title "packets received OK, count"
scalar KFatTreeAsync.coreSwitch[1].eth[3].mac rxPkOk:sum(packetBytes) 64
attr interpolationmode none
attr source rxPkOk
attr title "packets received OK, sum(packetBytes)"
scalar KFatTreeAsync.coreSwitch[1].eth[3].mac txPk:count 0
attr interpolationmode none
attr source packetSentToLower
attr title "packets transmitted, count"
scalar KFatTreeAsync.coreSwitch[1].eth[3].mac txPk:sum(packetBytes) 0
attr interpolationmode none
attr source packetSentToLower
attr title "packets transmitted, sum(packetBytes)"
scalar KFatTreeAsync.coreSwitch[1].eth[3].mac packetReceivedFromUpper:count 0
attr interpolationmode none
attr source packetReceivedFromUpper
attr title "packet bytes from higher layer, count"
scalar KFatTreeAsync.coreSwitch[1].eth[3].mac packetReceivedFromUpper:sum(packetBytes) 0
attr interpolationmode none
attr source packetReceivedFromUpper
attr title "packet bytes from higher layer, sum(packetBytes)"
scalar KFatTreeAsync.coreSwitch[1].eth[3].mac passedUpPk:count 1
attr interpolationmode none
attr source packetSentToUpper
attr title "packets passed to higher layer, count"
scalar KFatTreeAsync.coreSwitch[1].eth[3].mac passedUpPk:sum(packetBytes) 64
attr interpolationmode none
attr source packetSentToUpper
attr title "packets passed to higher layer, sum(packetBytes)"
scalar KFatTreeAsync.coreSwitch[1].eth[3].mac packetDropIncorrectlyReceived:count 0
attr interpolationmode none
attr source packetDropReasonIsIncorrectlyReceived(packetDropped)
attr title "packet drop: incorrectly received, count"
scalar KFatTreeAsync.coreSwitch[1].eth[3].mac packetDropIncorrectlyReceived:sum(packetBytes) 0
attr interpolationmode none
attr source packetDropReasonIsIncorrectlyReceived(packetDropped)
attr title "packet drop: incorrectly received, sum(packetBytes)"
scalar KFatTreeAsync.coreSwitch[1].eth[3].mac packetDropInterfaceDown:count 0
attr interpolationmode none
attr source packetDropReasonIsInterfaceDown(packetDropped)
attr title "packet drop: interface down, count"
scalar KFatTreeAsync.coreSwitch[1].eth[3].mac packetDropInterfaceDown:sum(packetBytes) 0
attr interpolationmode none
attr source packetDropReasonIsInterfaceDown(packetDropped)
attr title "packet drop: interface down, sum(packetBytes)"
scalar KFatTreeAsync.coreSwitch[1].eth[3].mac packetDropNotAddressedToUs:count 0
attr interpolationmode none
attr source packetDropReasonIsNotAddressedToUs(packetDropped)
attr title "packet drop: not addressed to us, count"
scalar KFatTreeAsync.coreSwitch[1].eth[3].mac packetDropNotAddressedToUs:sum(packetBytes) 0
attr interpolationmode none
attr source packetDropReasonIsNotAddressedToUs(packetDropped)
attr title "packet drop: not addressed to us, sum(packetBytes)"
scalar KFatTreeAsync.coreSwitch[1].eth[3].encap pauseSent:count 0
attr title "pause sent, count"
scalar KFatTreeAsync.coreSwitch[1].eth[3].encap pauseSent:sum 0
attr title "pause sent, sum"
scalar KFatTreeAsync.coreSwitch[1].eth[3].encap decapPk:count 1
attr interpolationmode none
attr source decapPk
attr title "packets decapsulated, count"
scalar KFatTreeAsync.coreSwitch[1].eth[3].encap decapPk:sum(packetBytes) 46
attr interpolationmode none
attr source decapPk
attr title "packets decapsulated, sum(packetBytes)"
scalar KFatTreeAsync.coreSwitch[1].eth[3].encap encapPk:count 0
attr interpolationmode none
attr source encapPk
attr title "packets encapsulated, count"
scalar KFatTreeAsync.coreSwitch[1].eth[3].encap encapPk:sum(packetBytes) 0
attr interpolationmode none
attr source encapPk
attr title "packets encapsulated, sum(packetBytes)"
scalar KFatTreeAsync.coreSwitch[1].ipv4.ip packetDropAddressResolutionFailed:count 0
attr interpolationmode none
attr source packetDropReasonIsAddressResolutionFailed(packetDropped)
attr title "packet drop: address resolution failed, count"
scalar KFatTreeAsync.coreSwitch[1].ipv4.ip packetDropAddressResolutionFailed:sum(packetBytes) 0
attr interpolationmode none
attr source packetDropReasonIsAddressResolutionFailed(packetDropped)
attr title "packet drop: address resolution failed, sum(packetBytes)"
scalar KFatTreeAsync.coreSwitch[1].ipv4.ip packetDropHopLimitReached:count 0
attr interpolationmode none
attr source packetDropReasonIsHopLimitReached(packetDropped)
attr title "packet drop: hop limit reached, count"
scalar KFatTreeAsync.coreSwitch[1].ipv4.ip packetDropHopLimitReached:sum(packetBytes) 0
attr interpolationmode none
attr source packetDropReasonIsHopLimitReached(packetDropped)
attr title "packet drop: hop limit reached, sum(packetBytes)"
scalar KFatTreeAsync.coreSwitch[1].ipv4.ip packetDropForwardingDisabled:count 0
attr interpolationmode none
attr source packetDropReasonIsForwardingDisabled(packetDropped)
attr title "packet drop: forwarding disabled, count"
scalar KFatTreeAsync.coreSwitch[1].ipv4.ip packetDropForwardingDisabled:sum(packetBytes) 0
attr interpolationmode none
attr source packetDropReasonIsForwardingDisabled(packetDropped)
attr title "packet drop: forwarding disabled, sum(packetBytes)"
scalar KFatTreeAsync.coreSwitch[1].ipv4.ip packetDropNoInterfaceFound:count 0
attr interpolationmode none
attr source packetDropReasonIsNoInterfaceFound(packetDropped)
attr title "packet drop: no interface found, count"
scalar KFatTreeAsync.coreSwitch[1].ipv4.ip packetDropNoInterfaceFound:sum(packetBytes) 0
attr interpolationmode none
attr source packetDropReasonIsNoInterfaceFound(packetDropped)
attr title "packet drop: no interface found, sum(packetBytes)"
scalar KFatTreeAsync.coreSwitch[1].ipv4.ip packetDropNoRouteFound:count 0
attr interpolationmode none
attr source packetDropReasonIsNoRouteFound(packetDropped)
attr title "packet drop: no route found, count"
scalar KFatTreeAsync.coreSwitch[1].ipv4.ip packetDropNoRouteFound:sum(packetBytes) 0
attr interpolationmode none
attr source packetDropReasonIsNoRouteFound(packetDropped)
attr title "packet drop: no route found, sum(packetBytes)"
scalar KFatTreeAsync.coreSwitch[1].ipv4.ip packetDropUndefined:count 0
attr interpolationmode none
attr source packetDropReasonIsUndefined(packetDropped)
attr title "packet drop: undefined, count"
scalar KFatTreeAsync.coreSwitch[1].ipv4.ip packetDropUndefined:sum(packetBytes) 0
attr interpolationmode none
attr source packetDropReasonIsUndefined(packetDropped)
attr title "packet drop: undefined, sum(packetBytes)"
scalar KFatTreeAsync.coreSwitch[1].ipv4.arp arpResolutionFailed:count 0
attr title "ARP failed resolutions, count"
scalar KFatTreeAsync.coreSwitch[1].ipv4.arp arpResolutionCompleted:count 0
attr title "ARP completed resolutions, count"
scalar KFatTreeAsync.coreSwitch[1].ipv4.arp arpResolutionInitiated:count 0
attr title "ARP initiated resolutions, count"
scalar KFatTreeAsync.coreSwitch[1].ipv4.arp arpReplySent:count 0
attr source arpReplySent
attr title "ARP replies sent, count"
scalar KFatTreeAsync.coreSwitch[1].ipv4.arp arpReplySent:sum(packetBytes) 0
attr source arpReplySent
attr title "ARP replies sent, sum(packetBytes)"
scalar KFatTreeAsync.coreSwitch[1].ipv4.arp arpRequestSent:count 0
attr source arpRequestSent
attr title "ARP request sent, count"
scalar KFatTreeAsync.coreSwitch[1].ipv4.arp arpRequestSent:sum(packetBytes) 0
attr source arpRequestSent
attr title "ARP request sent, sum(packetBytes)"
scalar KFatTreeAsync.coreSwitch[2].lo[0].lo rcvdPkFromHl:count 0
attr interpolationmode none
attr source packetReceivedFromUpper
attr title "packets received from higher layer, count"
scalar KFatTreeAsync.coreSwitch[2].lo[0].lo rcvdPkFromHl:sum(packetBytes) 0
attr interpolationmode none
attr source packetReceivedFromUpper
attr title "packets received from higher layer, sum(packetBytes)"
scalar KFatTreeAsync.coreSwitch[2].lo[0].lo passedUpPk:count 0
attr interpolationmode none
attr source packetSentToUpper
attr title "packets passed to higher layer, count"
scalar KFatTreeAsync.coreSwitch[2].lo[0].lo passedUpPk:sum(packetBytes) 0
attr interpolationmode none
attr source packetSentToUpper
attr title "packets passed to higher layer, sum(packetBytes)"
scalar KFatTreeAsync.coreSwitch[2].eth[0].mac.queue packetPopped:count 0
attr interpolationmode none
attr title "packet popped, count"
scalar KFatTreeAsync.coreSwitch[2].eth[0].mac.queue packetPopped:sum(packetBytes) 0
attr interpolationmode none
attr title "packet popped, sum(packetBytes)"
statistic KFatTreeAsync.coreSwitch[2].eth[0].mac.queue queueingTime:histogram
field count 0
field mean nan
field stddev nan
field min nan
field max nan
field sum 0
field sqrsum 0
attr interpolationmode none
attr source queueingTime(packetPopped)
attr title "queueing times, histogram"
attr unit s
bin	-inf	0
bin	0	0
bin	1	0
scalar KFatTreeAsync.coreSwitch[2].eth[0].mac.queue queueLength:max nan
attr interpolationmode sample-hold
attr source "count(packetPushed) - count(packetPopped) - count(packetRemoved) - count(packetDropped)"
attr title "queue length, max"
scalar KFatTreeAsync.coreSwitch[2].eth[0].mac.queue queueLength:timeavg nan
attr interpolationmode sample-hold
attr source "count(packetPushed) - count(packetPopped) - count(packetRemoved) - count(packetDropped)"
attr title "queue length, timeavg"
scalar KFatTreeAsync.coreSwitch[2].eth[0].mac.queue packetPushed:count 0
attr interpolationmode none
attr title "packet pushed, count"
scalar KFatTreeAsync.coreSwitch[2].eth[0].mac.queue packetPushed:sum(packetBytes) 0
attr interpolationmode none
attr title "packet pushed, sum(packetBytes)"
scalar KFatTreeAsync.coreSwitch[2].eth[0].mac.queue packetDropQueueOverflow:count 0
attr interpolationmode none
attr source packetDropReasonIsQueueOverflow(packetDropped)
attr title "packet drops: queue overflow, count"
scalar KFatTreeAsync.coreSwitch[2].eth[0].mac.queue packetDropQueueOverflow:sum(packetBytes) 0
attr interpolationmode none
attr source packetDropReasonIsQueueOverflow(packetDropped)
attr title "packet drops: queue overflow, sum(packetBytes)"
scalar KFatTreeAsync.coreSwitch[2].eth[0].mac.queue packetRemoved:count 0
attr interpolationmode none
attr title "packets removed, count"
scalar KFatTreeAsync.coreSwitch[2].eth[0].mac.queue packetRemoved:sum(packetBytes) 0
attr interpolationmode none
attr title "packets removed, sum(packetBytes)"
scalar KFatTreeAsync.coreSwitch[2].eth[0].mac "simulated time" 2.50008370144
scalar KFatTreeAsync.coreSwitch[2].eth[0].mac full-duplex 1
scalar KFatTreeAsync.coreSwitch[2].eth[0].mac "frames/sec sent" 0
scalar KFatTreeAsync.coreSwitch[2].eth[0].mac "frames/sec rcvd" 0.39998660821796
scalar KFatTreeAsync.coreSwitch[2].eth[0].mac "bits/sec sent" 0
scalar KFatTreeAsync.coreSwitch[2].eth[0].mac "bits/sec rcvd" 204.7931434076
scalar KFatTreeAsync.coreSwitch[2].eth[0].mac "rx channel idle (%)" 100
scalar KFatTreeAsync.coreSwitch[2].eth[0].mac "rx channel utilization (%)" 0
scalar KFatTreeAsync.coreSwitch[2].eth[0].mac rxPausePkUnits:count 0
attr interpolationmode none
attr title "pause units received, count"
scalar KFatTreeAsync.coreSwitch[2].eth[0].mac rxPausePkUnits:sum 0
attr interpolationmode none
attr title "pause units received, sum"
scalar KFatTreeAsync.coreSwitch[2].eth[0].mac txPausePkUnits:count 0
attr interpolationmode none
attr title "pause units sent, count"
scalar KFatTreeAsync.coreSwitch[2].eth[0].mac txPausePkUnits:sum 0
attr interpolationmode none
attr title "pause units sent, sum"
scalar KFatTreeAsync.coreSwitch[2].eth[0].mac rxPkOk:count 1
attr interpolationmode none
attr source rxPkOk
attr title "packets received OK, count"
scalar KFatTreeAsync.coreSwitch[2].eth[0].mac rxPkOk:sum(packetBytes) 64
attr interpolationmode none
attr source rxPkOk
attr title "packets received OK, sum(packetBytes)"
scalar KFatTreeAsync.coreSwitch[2].eth[0].mac txPk:count 0
attr interpolationmode none
attr source packetSentToLower
attr title "packets transmitted, count"
scalar KFatTreeAsync.coreSwitch[2].eth[0].mac txPk:sum(packetBytes) 0
attr interpolationmode none
attr source packetSentToLower
attr title "packets transmitted, sum(packetBytes)"
scalar KFatTreeAsync.coreSwitch[2].eth[0].mac packetReceivedFromUpper:count 0
attr interpolationmode none
attr source packetReceivedFromUpper
attr title "packet bytes from higher layer, count"
scalar KFatTreeAsync.coreSwitch[2].eth[0].mac packetReceivedFromUpper:sum(packetBytes) 0
attr interpolationmode none
attr source packetReceivedFromUpper
attr title "packet bytes from higher layer, sum(packetBytes)"
scalar KFatTreeAsync.coreSwitch[2].eth[0].mac passedUpPk:count 1
attr interpolationmode none
attr source packetSentToUpper
attr title "packets passed to higher layer, count"
scalar KFatTreeAsync.coreSwitch[2].eth[0].mac passedUpPk:sum(packetBytes) 64
attr interpolationmode none
attr source packetSentToUpper
attr title "packets passed to higher layer, sum(packetBytes)"
scalar KFatTreeAsync.coreSwitch[2].eth[0].mac packetDropIncorrectlyReceived:count 0
attr interpolationmode none
attr source packetDropReasonIsIncorrectlyReceived(packetDropped)
attr title "packet drop: incorrectly received, count"
scalar KFatTreeAsync.coreSwitch[2].eth[0].mac packetDropIncorrectlyReceived:sum(packetBytes) 0
attr interpolationmode none
attr source packetDropReasonIsIncorrectlyReceived(packetDropped)
attr title "packet drop: incorrectly received, sum(packetBytes)"
scalar KFatTreeAsync.coreSwitch[2].eth[0].mac packetDropInterfaceDown:count 0
attr interpolationmode none
attr source packetDropReasonIsInterfaceDown(packetDropped)
attr title "packet drop: interface down, count"
scalar KFatTreeAsync.coreSwitch[2].eth[0].mac packetDropInterfaceDown:sum(packetBytes) 0
attr interpolationmode none
attr source packetDropReasonIsInterfaceDown(packetDropped)
attr title "packet drop: interface down, sum(packetBytes)"
scalar KFatTreeAsync.coreSwitch[2].eth[0].mac packetDropNotAddressedToUs:count 0
attr interpolationmode none
attr source packetDropReasonIsNotAddressedToUs(packetDropped)
attr title "packet drop: not addressed to us, count"
scalar KFatTreeAsync.coreSwitch[2].eth[0].mac packetDropNotAddressedToUs:sum(packetBytes) 0
attr interpolationmode none
attr source packetDropReasonIsNotAddressedToUs(packetDropped)
attr title "packet drop: not addressed to us, sum(packetBytes)"
scalar KFatTreeAsync.coreSwitch[2].eth[0].encap pauseSent:count 0
attr title "pause sent, count"
scalar KFatTreeAsync.coreSwitch[2].eth[0].encap pauseSent:sum 0
attr title "pause sent, sum"
scalar KFatTreeAsync.coreSwitch[2].eth[0].encap decapPk:count 1
attr interpolationmode none
attr source decapPk
attr title "packets decapsulated, count"
scalar KFatTreeAsync.coreSwitch[2].eth[0].encap decapPk:sum(packetBytes) 46
attr interpolationmode none
attr source decapPk
attr title "packets decapsulated, sum(packetBytes)"
scalar KFatTreeAsync.coreSwitch[2].eth[0].encap encapPk:count 0
attr interpolationmode none
attr source encapPk
attr title "packets encapsulated, count"
scalar KFatTreeAsync.coreSwitch[2].eth[0].encap encapPk:sum(packetBytes) 0
attr interpolationmode none
attr source encapPk
attr title "packets encapsulated, sum(packetBytes)"
scalar KFatTreeAsync.coreSwitch[2].eth[1].mac.queue packetPopped:count 0
attr interpolationmode none
attr title "packet popped, count"
scalar KFatTreeAsync.coreSwitch[2].eth[1].mac.queue packetPopped:sum(packetBytes) 0
attr interpolationmode none
attr title "packet popped, sum(packetBytes)"
statistic KFatTreeAsync.coreSwitch[2].eth[1].mac.queue queueingTime:histogram
field count 0
field mean nan
field stddev nan
field min nan
field max nan
field sum 0
field sqrsum 0
attr interpolationmode none
attr source queueingTime(packetPopped)
attr title "queueing times, histogram"
attr unit s
bin	-inf	0
bin	0	0
bin	1	0
scalar KFatTreeAsync.coreSwitch[2].eth[1].mac.queue queueLength:max nan
attr interpolationmode sample-hold
attr source "count(packetPushed) - count(packetPopped) - count(packetRemoved) - count(packetDropped)"
attr title "queue length, max"
scalar KFatTreeAsync.coreSwitch[2].eth[1].mac.queue queueLength:timeavg nan
attr interpolationmode sample-hold
attr source "count(packetPushed) - count(packetPopped) - count(packetRemoved) - count(packetDropped)"
attr title "queue length, timeavg"
scalar KFatTreeAsync.coreSwitch[2].eth[1].mac.queue packetPushed:count 0
attr interpolationmode none
attr title "packet pushed, count"
scalar KFatTreeAsync.coreSwitch[2].eth[1].mac.queue packetPushed:sum(packetBytes) 0
attr interpolationmode none
attr title "packet pushed, sum(packetBytes)"
scalar KFatTreeAsync.coreSwitch[2].eth[1].mac.queue packetDropQueueOverflow:count 0
attr interpolationmode none
attr source packetDropReasonIsQueueOverflow(packetDropped)
attr title "packet drops: queue overflow, count"
scalar KFatTreeAsync.coreSwitch[2].eth[1].mac.queue packetDropQueueOverflow:sum(packetBytes) 0
attr interpolationmode none
attr source packetDropReasonIsQueueOverflow(packetDropped)
attr title "packet drops: queue overflow, sum(packetBytes)"
scalar KFatTreeAsync.coreSwitch[2].eth[1].mac.queue packetRemoved:count 0
attr interpolationmode none
attr title "packets removed, count"
scalar KFatTreeAsync.coreSwitch[2].eth[1].mac.queue packetRemoved:sum(packetBytes) 0
attr interpolationmode none
attr title "packets removed, sum(packetBytes)"
scalar KFatTreeAsync.coreSwitch[2].eth[1].mac "simulated time" 2.50008370144
scalar KFatTreeAsync.coreSwitch[2].eth[1].mac full-duplex 1
scalar KFatTreeAsync.coreSwitch[2].eth[1].mac "frames/sec sent" 0
scalar KFatTreeAsync.coreSwitch[2].eth[1].mac "frames/sec rcvd" 0.39998660821796
scalar KFatTreeAsync.coreSwitch[2].eth[1].mac "bits/sec sent" 0
scalar KFatTreeAsync.coreSwitch[2].eth[1].mac "bits/sec rcvd" 204.7931434076
scalar KFatTreeAsync.coreSwitch[2].eth[1].mac "rx channel idle (%)" 100
scalar KFatTreeAsync.coreSwitch[2].eth[1].mac "rx channel utilization (%)" 0
scalar KFatTreeAsync.coreSwitch[2].eth[1].mac rxPausePkUnits:count 0
attr interpolationmode none
attr title "pause units received, count"
scalar KFatTreeAsync.coreSwitch[2].eth[1].mac rxPausePkUnits:sum 0
attr interpolationmode none
attr title "pause units received, sum"
scalar KFatTreeAsync.coreSwitch[2].eth[1].mac txPausePkUnits:count 0
attr interpolationmode none
attr title "pause units sent, count"
scalar KFatTreeAsync.coreSwitch[2].eth[1].mac txPausePkUnits:sum 0
attr interpolationmode none
attr title "pause units sent, sum"
scalar KFatTreeAsync.coreSwitch[2].eth[1].mac rxPkOk:count 1
[...]
attr interpolationmode none
attr source packetDropReasonIsNoRouteFound(packetDropped)
attr title "packet drop: no route found, count"
scalar KFatTreeAsync.hosts.replica[13].ipv4.ip packetDropNoRouteFound:sum(packetBytes) 0
attr interpolationmode none
attr source packetDropReasonIsNoRouteFound(packetDropped)
attr title "packet drop: no route found, sum(packetBytes)"
scalar KFatTreeAsync.hosts.replica[13].ipv4.ip packetDropUndefined:count 0
attr interpolationmode none
attr source packetDropReasonIsUndefined(packetDropped)
attr title "packet drop: undefined, count"
scalar KFatTreeAsync.hosts.replica[13].ipv4.ip packetDropUndefined:sum(packetBytes) 0
attr interpolationmode none
attr source packetDropReasonIsUndefined(packetDropped)
attr title "packet drop: undefined, sum(packetBytes)"
scalar KFatTreeAsync.hosts.replica[13].ipv4.arp arpResolutionFailed:count 0
attr title "ARP failed resolutions, count"
scalar KFatTreeAsync.hosts.replica[13].ipv4.arp arpResolutionCompleted:count 1
attr title "ARP completed resolutions, count"
scalar KFatTreeAsync.hosts.replica[13].ipv4.arp arpResolutionInitiated:count 0
attr title "ARP initiated resolutions, count"
scalar KFatTreeAsync.hosts.replica[13].ipv4.arp arpReplySent:count 1
attr source arpReplySent
attr title "ARP replies sent, count"
scalar KFatTreeAsync.hosts.replica[13].ipv4.arp arpReplySent:sum(packetBytes) 28
attr source arpReplySent
attr title "ARP replies sent, sum(packetBytes)"
scalar KFatTreeAsync.hosts.replica[13].ipv4.arp arpRequestSent:count 0
attr source arpRequestSent
attr title "ARP request sent, count"
scalar KFatTreeAsync.hosts.replica[13].ipv4.arp arpRequestSent:sum(packetBytes) 0
attr source arpRequestSent
attr title "ARP request sent, sum(packetBytes)"
scalar KFatTreeAsync.hosts.replica[13].udp packetReceived:count 82
attr interpolationmode none
attr source packetReceived
attr title "packets received, count"
scalar KFatTreeAsync.hosts.replica[13].udp packetReceived:sum(packetBytes) 103156
attr interpolationmode none
attr source packetReceived
attr title "packets received, sum(packetBytes)"
scalar KFatTreeAsync.hosts.replica[13].udp packetSent:count 96
attr interpolationmode none
attr source packetSent
attr title "packets sent, count"
scalar KFatTreeAsync.hosts.replica[13].udp packetSent:sum(packetBytes) 120768
attr interpolationmode none
attr source packetSent
attr title "packets sent, sum(packetBytes)"
scalar KFatTreeAsync.hosts.replica[13].udp passedUpPk:count 82
attr interpolationmode none
attr source packetSentToUpper
attr title "packets passed up, count"
scalar KFatTreeAsync.hosts.replica[13].udp droppedPkWrongPort:count 0
attr interpolationmode none
attr source packetDropReasonIsNoPortFound(packetDropped)
attr title "packets dropped (wrong port), count"
scalar KFatTreeAsync.hosts.replica[13].udp droppedPkBadChecksum:count 0
attr interpolationmode none
attr source packetDropReasonIsIncorrectlyReceived(packetDropped)
attr title "packets dropped (checksum error), count"
scalar KFatTreeAsync.hosts.replica[13].app[0] packetReceived:count 82
attr interpolationmode none
attr source packetReceived
attr title "packets received, count"
scalar KFatTreeAsync.hosts.replica[13].app[0] packetReceived:sum(packetBytes) 102500
attr interpolationmode none
attr source packetReceived
attr title "packets received, sum(packetBytes)"
statistic KFatTreeAsync.hosts.replica[13].app[0] endToEndDelay:histogram
field count 82
field mean 1.5201018536585e-05
field stddev 4.3015571600196e-06
field min 0
field max 1.703424e-05
field sum 0.00124648352
field sqrsum 2.0446594007142e-08
attr interpolationmode none
attr source dataAge(packetReceived)
attr title "end-to-end delay, histogram"
attr unit s
bin	-inf	0
bin	0	6
bin	5e-07	0
bin	1e-06	0
bin	1.5e-06	0
bin	2e-06	0
bin	2.5e-06	0
bin	3e-06	0
bin	3.5e-06	0
bin	4e-06	0
bin	4.5e-06	0
bin	5e-06	0
bin	5.5e-06	0
bin	6e-06	0
bin	6.5e-06	0
bin	7e-06	0
bin	7.5e-06	0
bin	8e-06	0
bin	8.5e-06	0
bin	9e-06	0
bin	9.5e-06	0
bin	1e-05	0
bin	1.05e-05	0
bin	1.1e-05	0
bin	1.15e-05	0
bin	1.2e-05	0
bin	1.25e-05	0
bin	1.3e-05	0
bin	1.35e-05	0
bin	1.4e-05	0
bin	1.45e-05	0
bin	1.5e-05	0
bin	1.55e-05	0
bin	1.6e-05	66
bin	1.65e-05	5
bin	1.7e-05	5
bin	1.75e-05	0
bin	1.8e-05	0
bin	1.85e-05	0
bin	1.9e-05	0
bin	1.95e-05	0
bin	2e-05	0
bin	2.05e-05	0
bin	2.1e-05	0
bin	2.15e-05	0
scalar KFatTreeAsync.hosts.replica[14].lo[0].lo rcvdPkFromHl:count 6
attr interpolationmode none
attr source packetReceivedFromUpper
attr title "packets received from higher layer, count"
scalar KFatTreeAsync.hosts.replica[14].lo[0].lo rcvdPkFromHl:sum(packetBytes) 7668
attr interpolationmode none
attr source packetReceivedFromUpper
attr title "packets received from higher layer, sum(packetBytes)"
scalar KFatTreeAsync.hosts.replica[14].lo[0].lo passedUpPk:count 6
attr interpolationmode none
attr source packetSentToUpper
attr title "packets passed to higher layer, count"
scalar KFatTreeAsync.hosts.replica[14].lo[0].lo passedUpPk:sum(packetBytes) 7668
attr interpolationmode none
attr source packetSentToUpper
attr title "packets passed to higher layer, sum(packetBytes)"
scalar KFatTreeAsync.hosts.replica[14].eth[0].mac.queue packetPopped:count 78
attr interpolationmode none
attr title "packet popped, count"
scalar KFatTreeAsync.hosts.replica[14].eth[0].mac.queue packetPopped:sum(packetBytes) 98624
attr interpolationmode none
attr title "packet popped, sum(packetBytes)"
statistic KFatTreeAsync.hosts.replica[14].eth[0].mac.queue queueingTime:histogram
field count 78
field mean 7.0861538461538e-06
field stddev 4.710322091937e-06
field min 0
field max 1.47392e-05
field sum 0.00055272
field sqrsum 5.625068288e-09
attr interpolationmode none
attr source queueingTime(packetPopped)
attr title "queueing times, histogram"
attr unit s
bin	-inf	0
bin	0	8
bin	2e-07	0
bin	4e-07	0
bin	6e-07	0
bin	8e-07	0
bin	1e-06	5
bin	1.2e-06	0
bin	1.4e-06	0
bin	1.6e-06	0
bin	1.8e-06	0
bin	2e-06	5
bin	2.2e-06	0
bin	2.4e-06	0
bin	2.6e-06	0
bin	2.8e-06	0
bin	3e-06	5
bin	3.2e-06	0
bin	3.4e-06	0
bin	3.6e-06	0
bin	3.8e-06	0
bin	4e-06	0
bin	4.2e-06	5
bin	4.4e-06	0
bin	4.6e-06	0
bin	4.8e-06	0
bin	5e-06	0
bin	5.2e-06	5
bin	5.4e-06	0
bin	5.6e-06	0
bin	5.8e-06	0
bin	6e-06	0
bin	6.2e-06	5
bin	6.4e-06	0
bin	6.6e-06	0
bin	6.8e-06	0
bin	7e-06	0
bin	7.2e-06	5
bin	7.4e-06	0
bin	7.6e-06	0
bin	7.8e-06	0
bin	8e-06	0
bin	8.2e-06	0
bin	8.4e-06	5
bin	8.6e-06	0
bin	8.8e-06	0
bin	9e-06	0
bin	9.2e-06	0
bin	9.4e-06	5
bin	9.6e-06	0
bin	9.8e-06	0
bin	1e-05	0
bin	1.02e-05	0
bin	1.04e-05	5
bin	1.06e-05	0
bin	1.08e-05	0
bin	1.1e-05	0
bin	1.12e-05	0
bin	1.14e-05	5
bin	1.16e-05	0
bin	1.18e-05	0
bin	1.2e-05	0
bin	1.22e-05	0
bin	1.24e-05	0
bin	1.26e-05	5
bin	1.28e-05	0
bin	1.3e-05	0
bin	1.32e-05	0
bin	1.34e-05	0
bin	1.36e-05	5
bin	1.38e-05	0
bin	1.4e-05	0
bin	1.42e-05	0
bin	1.44e-05	0
bin	1.46e-05	5
bin	1.48e-05	0
bin	1.5e-05	0
bin	1.52e-05	0
bin	1.54e-05	0
bin	1.56e-05	0
bin	1.58e-05	0
bin	1.6e-05	0
bin	1.62e-05	0
bin	1.64e-05	0
bin	1.66e-05	0
bin	1.68e-05	0
bin	1.7e-05	0
bin	1.72e-05	0
bin	1.74e-05	0
bin	1.76e-05	0
bin	1.78e-05	0
bin	1.8e-05	0
bin	1.82e-05	0
bin	1.84e-05	0
bin	1.86e-05	0
scalar KFatTreeAsync.hosts.replica[14].eth[0].mac.queue queueLength:max 14
attr interpolationmode sample-hold
attr source "count(packetPushed) - count(packetPopped) - count(packetRemoved) - count(packetDropped)"
attr title "queue length, max"
scalar KFatTreeAsync.hosts.replica[14].eth[0].mac.queue queueLength:timeavg 0.00022692232250994
attr interpolationmode sample-hold
attr source "count(packetPushed) - count(packetPopped) - count(packetRemoved) - count(packetDropped)"
attr title "queue length, timeavg"
scalar KFatTreeAsync.hosts.replica[14].eth[0].mac.queue packetPushed:count 92
attr interpolationmode none
attr title "packet pushed, count"
scalar KFatTreeAsync.hosts.replica[14].eth[0].mac.queue packetPushed:sum(packetBytes) 116768
attr interpolationmode none
attr title "packet pushed, sum(packetBytes)"
scalar KFatTreeAsync.hosts.replica[14].eth[0].mac.queue packetDropQueueOverflow:count 0
attr interpolationmode none
attr source packetDropReasonIsQueueOverflow(packetDropped)
attr title "packet drops: queue overflow, count"
scalar KFatTreeAsync.hosts.replica[14].eth[0].mac.queue packetDropQueueOverflow:sum(packetBytes) 0
attr interpolationmode none
attr source packetDropReasonIsQueueOverflow(packetDropped)
attr title "packet drops: queue overflow, sum(packetBytes)"
scalar KFatTreeAsync.hosts.replica[14].eth[0].mac.queue packetRemoved:count 0
attr interpolationmode none
attr title "packets removed, count"
scalar KFatTreeAsync.hosts.replica[14].eth[0].mac.queue packetRemoved:sum(packetBytes) 0
attr interpolationmode none
attr title "packets removed, sum(packetBytes)"
scalar KFatTreeAsync.hosts.replica[14].eth[0].mac "simulated time" 2.50008370144
scalar KFatTreeAsync.hosts.replica[14].eth[0].mac full-duplex 1
scalar KFatTreeAsync.hosts.replica[14].eth[0].mac "frames/sec sent" 31.198955441001
scalar KFatTreeAsync.hosts.replica[14].eth[0].mac "frames/sec rcvd" 31.198955441001
scalar KFatTreeAsync.hosts.replica[14].eth[0].mac "bits/sec sent" 315586.23399111
scalar KFatTreeAsync.hosts.replica[14].eth[0].mac "bits/sec rcvd" 315586.23399111
scalar KFatTreeAsync.hosts.replica[14].eth[0].mac "rx channel idle (%)" 100
scalar KFatTreeAsync.hosts.replica[14].eth[0].mac "rx channel utilization (%)" 0
scalar KFatTreeAsync.hosts.replica[14].eth[0].mac rxPausePkUnits:count 0
attr interpolationmode none
attr title "pause units received, count"
scalar KFatTreeAsync.hosts.replica[14].eth[0].mac rxPausePkUnits:sum 0
attr interpolationmode none
attr title "pause units received, sum"
scalar KFatTreeAsync.hosts.replica[14].eth[0].mac txPausePkUnits:count 0
attr interpolationmode none
attr title "pause units sent, count"
scalar KFatTreeAsync.hosts.replica[14].eth[0].mac txPausePkUnits:sum 0
attr interpolationmode none
attr title "pause units sent, sum"
scalar KFatTreeAsync.hosts.replica[14].eth[0].mac rxPkOk:count 78
attr interpolationmode none
attr source rxPkOk
attr title "packets received OK, count"
scalar KFatTreeAsync.hosts.replica[14].eth[0].mac rxPkOk:sum(packetBytes) 98624
attr interpolationmode none
attr source rxPkOk
attr title "packets received OK, sum(packetBytes)"
scalar KFatTreeAsync.hosts.replica[14].eth[0].mac txPk:count 78
attr interpolationmode none
attr source packetSentToLower
attr title "packets transmitted, count"
scalar KFatTreeAsync.hosts.replica[14].eth[0].mac txPk:sum(packetBytes) 98624
attr interpolationmode none
attr source packetSentToLower
attr title "packets transmitted, sum(packetBytes)"
scalar KFatTreeAsync.hosts.replica[14].eth[0].mac packetReceivedFromUpper:count 92
attr interpolationmode none
attr source packetReceivedFromUpper
attr title "packet bytes from higher layer, count"
scalar KFatTreeAsync.hosts.replica[14].eth[0].mac packetReceivedFromUpper:sum(packetBytes) 116732
attr interpolationmode none
attr source packetReceivedFromUpper
attr title "packet bytes from higher layer, sum(packetBytes)"
scalar KFatTreeAsync.hosts.replica[14].eth[0].mac passedUpPk:count 78
attr interpolationmode none
attr source packetSentToUpper
attr title "packets passed to higher layer, count"
scalar KFatTreeAsync.hosts.replica[14].eth[0].mac passedUpPk:sum(packetBytes) 98624
attr interpolationmode none
attr source packetSentToUpper
attr title "packets passed to higher layer, sum(packetBytes)"
scalar KFatTreeAsync.hosts.replica[14].eth[0].mac packetDropIncorrectlyReceived:count 0
attr interpolationmode none
attr source packetDropReasonIsIncorrectlyReceived(packetDropped)
attr title "packet drop: incorrectly received, count"
scalar KFatTreeAsync.hosts.replica[14].eth[0].mac packetDropIncorrectlyReceived:sum(packetBytes) 0
attr interpolationmode none
attr source packetDropReasonIsIncorrectlyReceived(packetDropped)
attr title "packet drop: incorrectly received, sum(packetBytes)"
scalar KFatTreeAsync.hosts.replica[14].eth[0].mac packetDropInterfaceDown:count 0
attr interpolationmode none
attr source packetDropReasonIsInterfaceDown(packetDropped)
attr title "packet drop: interface down, count"
scalar KFatTreeAsync.hosts.replica[14].eth[0].mac packetDropInterfaceDown:sum(packetBytes) 0
attr interpolationmode none
attr source packetDropReasonIsInterfaceDown(packetDropped)
attr title "packet drop: interface down, sum(packetBytes)"
scalar KFatTreeAsync.hosts.replica[14].eth[0].mac packetDropNotAddressedToUs:count 0
attr interpolationmode none
attr source packetDropReasonIsNotAddressedToUs(packetDropped)
attr title "packet drop: not addressed to us, count"
scalar KFatTreeAsync.hosts.replica[14].eth[0].mac packetDropNotAddressedToUs:sum(packetBytes) 0
attr interpolationmode none
attr source packetDropReasonIsNotAddressedToUs(packetDropped)
attr title "packet drop: not addressed to us, sum(packetBytes)"
scalar KFatTreeAsync.hosts.replica[14].eth[0].encap pauseSent:count 0
attr title "pause sent, count"
scalar KFatTreeAsync.hosts.replica[14].eth[0].encap pauseSent:sum 0
attr title "pause sent, sum"
scalar KFatTreeAsync.hosts.replica[14].eth[0].encap decapPk:count 78
attr interpolationmode none
attr source decapPk
attr title "packets decapsulated, count"
scalar KFatTreeAsync.hosts.replica[14].eth[0].encap decapPk:sum(packetBytes) 97220
attr interpolationmode none
attr source decapPk
attr title "packets decapsulated, sum(packetBytes)"
scalar KFatTreeAsync.hosts.replica[14].eth[0].encap encapPk:count 92
attr interpolationmode none
attr source encapPk
attr title "packets encapsulated, count"
scalar KFatTreeAsync.hosts.replica[14].eth[0].encap encapPk:sum(packetBytes) 115076
attr interpolationmode none
attr source encapPk
attr title "packets encapsulated, sum(packetBytes)"
scalar KFatTreeAsync.hosts.replica[14].ipv4.ip packetDropAddressResolutionFailed:count 0
attr interpolationmode none
attr source packetDropReasonIsAddressResolutionFailed(packetDropped)
attr title "packet drop: address resolution failed, count"
scalar KFatTreeAsync.hosts.replica[14].ipv4.ip packetDropAddressResolutionFailed:sum(packetBytes) 0
attr interpolationmode none
attr source packetDropReasonIsAddressResolutionFailed(packetDropped)
attr title "packet drop: address resolution failed, sum(packetBytes)"
scalar KFatTreeAsync.hosts.replica[14].ipv4.ip packetDropHopLimitReached:count 0
attr interpolationmode none
attr source packetDropReasonIsHopLimitReached(packetDropped)
attr title "packet drop: hop limit reached, count"
scalar KFatTreeAsync.hosts.replica[14].ipv4.ip packetDropHopLimitReached:sum(packetBytes) 0
attr interpolationmode none
attr source packetDropReasonIsHopLimitReached(packetDropped)
attr title "packet drop: hop limit reached, sum(packetBytes)"
scalar KFatTreeAsync.hosts.replica[14].ipv4.ip packetDropForwardingDisabled:count 0
attr interpolationmode none
attr source packetDropReasonIsForwardingDisabled(packetDropped)
attr title "packet drop: forwarding disabled, count"
scalar KFatTreeAsync.hosts.replica[14].ipv4.ip packetDropForwardingDisabled:sum(packetBytes) 0
attr interpolationmode none
attr source packetDropReasonIsForwardingDisabled(packetDropped)
attr title "packet drop: forwarding disabled, sum(packetBytes)"
scalar KFatTreeAsync.hosts.replica[14].ipv4.ip packetDropNoInterfaceFound:count 0
attr interpolationmode none
attr source packetDropReasonIsNoInterfaceFound(packetDropped)
attr title "packet drop: no interface found, count"
scalar KFatTreeAsync.hosts.replica[14].ipv4.ip packetDropNoInterfaceFound:sum(packetBytes) 0
attr interpolationmode none
attr source packetDropReasonIsNoInterfaceFound(packetDropped)
attr title "packet drop: no interface found, sum(packetBytes)"
scalar KFatTreeAsync.hosts.replica[14].ipv4.ip packetDropNoRouteFound:count 0
attr interpolationmode none
attr source packetDropReasonIsNoRouteFound(packetDropped)
attr title "packet drop: no route found, count"
scalar KFatTreeAsync.hosts.replica[14].ipv4.ip packetDropNoRouteFound:sum(packetBytes) 0
attr interpolationmode none
attr source packetDropReasonIsNoRouteFound(packetDropped)
attr title "packet drop: no route found, sum(packetBytes)"
scalar KFatTreeAsync.hosts.replica[14].ipv4.ip packetDropUndefined:count 0
attr interpolationmode none
attr source packetDropReasonIsUndefined(packetDropped)
attr title "packet drop: undefined, count"
scalar KFatTreeAsync.hosts.replica[14].ipv4.ip packetDropUndefined:sum(packetBytes) 0
attr interpolationmode none
attr source packetDropReasonIsUndefined(packetDropped)
attr title "packet drop: undefined, sum(packetBytes)"
scalar KFatTreeAsync.hosts.replica[14].ipv4.arp arpResolutionFailed:count 0
attr title "ARP failed resolutions, count"
scalar KFatTreeAsync.hosts.replica[14].ipv4.arp arpResolutionCompleted:count 1
attr title "ARP completed resolutions, count"
scalar KFatTreeAsync.hosts.replica[14].ipv4.arp arpResolutionInitiated:count 0
attr title "ARP initiated resolutions, count"
scalar KFatTreeAsync.hosts.replica[14].ipv4.arp arpReplySent:count 1
attr source arpReplySent
attr title "ARP replies sent, count"
scalar KFatTreeAsync.hosts.replica[14].ipv4.arp arpReplySent:sum(packetBytes) 28
attr source arpReplySent
attr title "ARP replies sent, sum(packetBytes)"
scalar KFatTreeAsync.hosts.replica[14].ipv4.arp arpRequestSent:count 0
attr source arpRequestSent
attr title "ARP request sent, count"
scalar KFatTreeAsync.hosts.replica[14].ipv4.arp arpRequestSent:sum(packetBytes) 0
attr source arpRequestSent
attr title "ARP request sent, sum(packetBytes)"
scalar KFatTreeAsync.hosts.replica[14].udp packetReceived:count 82
attr interpolationmode none
attr source packetReceived
attr title "packets received, count"
scalar KFatTreeAsync.hosts.replica[14].udp packetReceived:sum(packetBytes) 103156
attr interpolationmode none
attr source packetReceived
attr title "packets received, sum(packetBytes)"
scalar KFatTreeAsync.hosts.replica[14].udp packetSent:count 96
attr interpolationmode none
attr source packetSent
attr title "packets sent, count"
scalar KFatTreeAsync.hosts.replica[14].udp packetSent:sum(packetBytes) 120768
attr interpolationmode none
attr source packetSent
attr title "packets sent, sum(packetBytes)"
scalar KFatTreeAsync.hosts.replica[14].udp passedUpPk:count 82
attr interpolationmode none
attr source packetSentToUpper
attr title "packets passed up, count"
scalar KFatTreeAsync.hosts.replica[14].udp droppedPkWrongPort:count 0
attr interpolationmode none
attr source packetDropReasonIsNoPortFound(packetDropped)
attr title "packets dropped (wrong port), count"
scalar KFatTreeAsync.hosts.replica[14].udp droppedPkBadChecksum:count 0
attr interpolationmode none
attr source packetDropReasonIsIncorrectlyReceived(packetDropped)
attr title "packets dropped (checksum error), count"
scalar KFatTreeAsync.hosts.replica[14].app[0] packetReceived:count 82
attr interpolationmode none
attr source packetReceived
attr title "packets received, count"
scalar KFatTreeAsync.hosts.replica[14].app[0] packetReceived:sum(packetBytes) 102500
attr interpolationmode none
attr source packetReceived
attr title "packets received, sum(packetBytes)"
statistic KFatTreeAsync.hosts.replica[14].app[0] endToEndDelay:histogram
field count 82
field mean 1.6046056585366e-05
field stddev 4.5376898527469e-06
field min 0
field max 1.755872e-05
field sum 0.00131577664
field sqrsum 2.278086738432e-08
attr interpolationmode none
attr source dataAge(packetReceived)
attr title "end-to-end delay, histogram"
attr unit s
bin	-inf	0
bin	0	6
bin	5e-07	0
bin	1e-06	0
bin	1.5e-06	0
bin	2e-06	0
bin	2.5e-06	0
bin	3e-06	0
bin	3.5e-06	0
bin	4e-06	0
bin	4.5e-06	0
bin	5e-06	0
bin	5.5e-06	0
bin	6e-06	0
bin	6.5e-06	0
bin	7e-06	0
bin	7.5e-06	0
bin	8e-06	0
bin	8.5e-06	0
bin	9e-06	0
bin	9.5e-06	0
bin	1e-05	0
bin	1.05e-05	0
bin	1.1e-05	0
bin	1.15e-05	0
bin	1.2e-05	0
bin	1.25e-05	0
bin	1.3e-05	0
bin	1.35e-05	0
bin	1.4e-05	0
bin	1.45e-05	0
bin	1.5e-05	0
bin	1.55e-05	0
bin	1.6e-05	0
bin	1.65e-05	0
bin	1.7e-05	64
bin	1.75e-05	12
bin	1.8e-05	0
bin	1.85e-05	0
bin	1.9e-05	0
bin	1.95e-05	0
bin	2e-05	0
bin	2.05e-05	0
bin	2.1e-05	0
bin	2.15e-05	0
bin	2.2e-05	0

