                                                                
version 2
run General-0-20220613-17:20:08-98729
attr configname General
attr datetime 20220613-17:20:08
attr experiment General
attr inifile kFatTreeAsync.ini
attr iterationvars ""
attr iterationvarsf ""
attr measurement ""
attr network KFatTreeAsync
attr processid 98729
attr repetition 0
attr replication #0
attr resultdir results
attr runnumber 0
attr seedset 0
param **.k 4
param **.client.numApps 1
param **.client.app[0].typename "\"ClientAppNoCoord\""
param **.client.app[0].localPort 100
param **.client.app[0].destPort 100
param **.client.app[0].messageLength 1250B
param **.client.app[0].sendInterval 0.5s
param **.client.app[0].destAddresses "moduleListByPath(\"**.replica[*]\")"
param **.replica[*].numApps 1
param **.replica[*].app[0].typename "\"ReplicaAppBroadcast\""
param **.replica[*].app[0].localPort 100
param **.replica[*].app[0].destPort 100
param **.replica[*].app[0].messageLength 1250B
param **.replica[*].app[0].destAddresses "\"224.0.1.3\""
param **.replica[*].app[0].thisId parentIndex()
param **.replica[*].app[0].joinLocalMulticastGroups true
param **.app[0].startTime 0s
param **.app[0].stopTime 30s
param **.app[0].delayLimit 3s
param **.configurator.config "xmldoc(\"config2.xml\")"

vector 0 KFatTreeAsync.coreSwitch[0].eth[0].encap encapPk:vector(packetBytes) ETV
attr interpolationmode none
attr source encapPk
attr title "packets encapsulated, vector(packetBytes)"
vector 1 KFatTreeAsync.coreSwitch[0].eth[1].encap encapPk:vector(packetBytes) ETV
attr interpolationmode none
attr source encapPk
attr title "packets encapsulated, vector(packetBytes)"
vector 2 KFatTreeAsync.coreSwitch[0].eth[2].encap encapPk:vector(packetBytes) ETV
attr interpolationmode none
attr source encapPk
attr title "packets encapsulated, vector(packetBytes)"
vector 3 KFatTreeAsync.coreSwitch[0].eth[3].encap encapPk:vector(packetBytes) ETV
attr interpolationmode none
attr source encapPk
attr title "packets encapsulated, vector(packetBytes)"
vector 4 KFatTreeAsync.coreSwitch[1].eth[0].encap encapPk:vector(packetBytes) ETV
attr interpolationmode none
attr source encapPk
attr title "packets encapsulated, vector(packetBytes)"
vector 5 KFatTreeAsync.coreSwitch[1].eth[1].encap encapPk:vector(packetBytes) ETV
attr interpolationmode none
attr source encapPk
attr title "packets encapsulated, vector(packetBytes)"
vector 6 KFatTreeAsync.coreSwitch[1].eth[2].encap encapPk:vector(packetBytes) ETV
attr interpolationmode none
attr source encapPk
attr title "packets encapsulated, vector(packetBytes)"
vector 7 KFatTreeAsync.coreSwitch[1].eth[3].encap encapPk:vector(packetBytes) ETV
attr interpolationmode none
attr source encapPk
attr title "packets encapsulated, vector(packetBytes)"
vector 8 KFatTreeAsync.coreSwitch[2].eth[0].encap encapPk:vector(packetBytes) ETV
attr interpolationmode none
attr source encapPk
attr title "packets encapsulated, vector(packetBytes)"
vector 9 KFatTreeAsync.coreSwitch[2].eth[1].encap encapPk:vector(packetBytes) ETV
attr interpolationmode none
attr source encapPk
attr title "packets encapsulated, vector(packetBytes)"
vector 10 KFatTreeAsync.coreSwitch[2].eth[2].encap encapPk:vector(packetBytes) ETV
attr interpolationmode none
attr source encapPk
attr title "packets encapsulated, vector(packetBytes)"
vector 11 KFatTreeAsync.coreSwitch[2].eth[3].encap encapPk:vector(packetBytes) ETV
attr interpolationmode none
attr source encapPk
attr title "packets encapsulated, vector(packetBytes)"
vector 12 KFatTreeAsync.coreSwitch[3].eth[0].encap encapPk:vector(packetBytes) ETV
attr interpolationmode none
attr source encapPk
attr title "packets encapsulated, vector(packetBytes)"
vector 13 KFatTreeAsync.coreSwitch[3].eth[1].encap encapPk:vector(packetBytes) ETV
attr interpolationmode none
attr source encapPk
attr title "packets encapsulated, vector(packetBytes)"
vector 14 KFatTreeAsync.coreSwitch[3].eth[2].encap encapPk:vector(packetBytes) ETV
attr interpolationmode none
attr source encapPk
attr title "packets encapsulated, vector(packetBytes)"
vector 15 KFatTreeAsync.coreSwitch[3].eth[3].encap encapPk:vector(packetBytes) ETV
attr interpolationmode none
attr source encapPk
attr title "packets encapsulated, vector(packetBytes)"
vector 16 KFatTreeAsync.pod[0].aggregateSwitch[0].eth[0].encap encapPk:vector(packetBytes) ETV
attr interpolationmode none
attr source encapPk
attr title "packets encapsulated, vector(packetBytes)"
vector 17 KFatTreeAsync.pod[0].aggregateSwitch[0].eth[1].encap encapPk:vector(packetBytes) ETV
attr interpolationmode none
attr source encapPk
attr title "packets encapsulated, vector(packetBytes)"
vector 18 KFatTreeAsync.pod[0].aggregateSwitch[0].eth[2].encap encapPk:vector(packetBytes) ETV
attr interpolationmode none
attr source encapPk
attr title "packets encapsulated, vector(packetBytes)"
vector 19 KFatTreeAsync.pod[0].aggregateSwitch[0].eth[3].encap encapPk:vector(packetBytes) ETV
attr interpolationmode none
attr source encapPk
attr title "packets encapsulated, vector(packetBytes)"
vector 20 KFatTreeAsync.pod[0].aggregateSwitch[1].eth[0].encap encapPk:vector(packetBytes) ETV
attr interpolationmode none
attr source encapPk
attr title "packets encapsulated, vector(packetBytes)"
vector 21 KFatTreeAsync.pod[0].aggregateSwitch[1].eth[1].encap encapPk:vector(packetBytes) ETV
attr interpolationmode none
attr source encapPk
attr title "packets encapsulated, vector(packetBytes)"
vector 22 KFatTreeAsync.pod[0].aggregateSwitch[1].eth[2].encap encapPk:vector(packetBytes) ETV
attr interpolationmode none
attr source encapPk
attr title "packets encapsulated, vector(packetBytes)"
vector 23 KFatTreeAsync.pod[0].aggregateSwitch[1].eth[3].encap encapPk:vector(packetBytes) ETV
attr interpolationmode none
attr source encapPk
attr title "packets encapsulated, vector(packetBytes)"
vector 24 KFatTreeAsync.pod[0].edgeSwitch[0].eth[0].encap encapPk:vector(packetBytes) ETV
attr interpolationmode none
attr source encapPk
attr title "packets encapsulated, vector(packetBytes)"
vector 25 KFatTreeAsync.pod[0].edgeSwitch[0].eth[1].encap encapPk:vector(packetBytes) ETV
attr interpolationmode none
attr source encapPk
attr title "packets encapsulated, vector(packetBytes)"
vector 26 KFatTreeAsync.pod[0].edgeSwitch[0].eth[2].encap encapPk:vector(packetBytes) ETV
attr interpolationmode none
attr source encapPk
attr title "packets encapsulated, vector(packetBytes)"
vector 27 KFatTreeAsync.pod[0].edgeSwitch[0].eth[3].encap encapPk:vector(packetBytes) ETV
attr interpolationmode none
attr source encapPk
attr title "packets encapsulated, vector(packetBytes)"
vector 28 KFatTreeAsync.pod[0].edgeSwitch[1].eth[0].encap encapPk:vector(packetBytes) ETV
attr interpolationmode none
attr source encapPk
attr title "packets encapsulated, vector(packetBytes)"
vector 29 KFatTreeAsync.pod[0].edgeSwitch[1].eth[1].encap encapPk:vector(packetBytes) ETV
attr interpolationmode none
attr source encapPk
attr title "packets encapsulated, vector(packetBytes)"
vector 30 KFatTreeAsync.pod[0].edgeSwitch[1].eth[2].encap encapPk:vector(packetBytes) ETV
attr interpolationmode none
attr source encapPk
attr title "packets encapsulated, vector(packetBytes)"
vector 31 KFatTreeAsync.pod[0].edgeSwitch[1].eth[3].encap encapPk:vector(packetBytes) ETV
attr interpolationmode none
attr source encapPk
attr title "packets encapsulated, vector(packetBytes)"
vector 32 KFatTreeAsync.pod[1].aggregateSwitch[0].eth[0].encap encapPk:vector(packetBytes) ETV
attr interpolationmode none
attr source encapPk
attr title "packets encapsulated, vector(packetBytes)"
vector 33 KFatTreeAsync.pod[1].aggregateSwitch[0].eth[1].encap encapPk:vector(packetBytes) ETV
attr interpolationmode none
attr source encapPk
attr title "packets encapsulated, vector(packetBytes)"
vector 34 KFatTreeAsync.pod[1].aggregateSwitch[0].eth[2].encap encapPk:vector(packetBytes) ETV
attr interpolationmode none
attr source encapPk
attr title "packets encapsulated, vector(packetBytes)"
vector 35 KFatTreeAsync.pod[1].aggregateSwitch[0].eth[3].encap encapPk:vector(packetBytes) ETV
attr interpolationmode none
attr source encapPk
attr title "packets encapsulated, vector(packetBytes)"
vector 36 KFatTreeAsync.pod[1].aggregateSwitch[1].eth[0].encap encapPk:vector(packetBytes) ETV
attr interpolationmode none
attr source encapPk
attr title "packets encapsulated, vector(packetBytes)"
vector 37 KFatTreeAsync.pod[1].aggregateSwitch[1].eth[1].encap encapPk:vector(packetBytes) ETV
attr interpolationmode none
attr source encapPk
attr title "packets encapsulated, vector(packetBytes)"
vector 38 KFatTreeAsync.pod[1].aggregateSwitch[1].eth[2].encap encapPk:vector(packetBytes) ETV
attr interpolationmode none
attr source encapPk
attr title "packets encapsulated, vector(packetBytes)"
vector 39 KFatTreeAsync.pod[1].aggregateSwitch[1].eth[3].encap encapPk:vector(packetBytes) ETV
attr interpolationmode none
attr source encapPk
attr title "packets encapsulated, vector(packetBytes)"
vector 40 KFatTreeAsync.pod[1].edgeSwitch[0].eth[0].encap encapPk:vector(packetBytes) ETV
attr interpolationmode none
attr source encapPk
attr title "packets encapsulated, vector(packetBytes)"
vector 41 KFatTreeAsync.pod[1].edgeSwitch[0].eth[1].encap encapPk:vector(packetBytes) ETV
attr interpolationmode none
attr source encapPk
attr title "packets encapsulated, vector(packetBytes)"
vector 42 KFatTreeAsync.pod[1].edgeSwitch[0].eth[2].encap encapPk:vector(packetBytes) ETV
attr interpolationmode none
attr source encapPk
attr title "packets encapsulated, vector(packetBytes)"
vector 43 KFatTreeAsync.pod[1].edgeSwitch[0].eth[3].encap encapPk:vector(packetBytes) ETV
attr interpolationmode none
attr source encapPk
attr title "packets encapsulated, vector(packetBytes)"
vector 44 KFatTreeAsync.pod[1].edgeSwitch[1].eth[0].encap encapPk:vector(packetBytes) ETV
attr interpolationmode none
attr source encapPk
attr title "packets encapsulated, vector(packetBytes)"
vector 45 KFatTreeAsync.pod[1].edgeSwitch[1].eth[1].encap encapPk:vector(packetBytes) ETV
attr interpolationmode none
attr source encapPk
attr title "packets encapsulated, vector(packetBytes)"
vector 46 KFatTreeAsync.pod[1].edgeSwitch[1].eth[2].encap encapPk:vector(packetBytes) ETV
attr interpolationmode none
attr source encapPk
attr title "packets encapsulated, vector(packetBytes)"
vector 47 KFatTreeAsync.pod[1].edgeSwitch[1].eth[3].encap encapPk:vector(packetBytes) ETV
attr interpolationmode none
attr source encapPk
attr title "packets encapsulated, vector(packetBytes)"
vector 48 KFatTreeAsync.pod[2].aggregateSwitch[0].eth[0].encap encapPk:vector(packetBytes) ETV
attr interpolationmode none
attr source encapPk
attr title "packets encapsulated, vector(packetBytes)"
vector 49 KFatTreeAsync.pod[2].aggregateSwitch[0].eth[1].encap encapPk:vector(packetBytes) ETV
attr interpolationmode none
attr source encapPk
attr title "packets encapsulated, vector(packetBytes)"
vector 50 KFatTreeAsync.pod[2].aggregateSwitch[0].eth[2].encap encapPk:vector(packetBytes) ETV
attr interpolationmode none
attr source encapPk
attr title "packets encapsulated, vector(packetBytes)"
vector 51 KFatTreeAsync.pod[2].aggregateSwitch[0].eth[3].encap encapPk:vector(packetBytes) ETV
attr interpolationmode none
attr source encapPk
attr title "packets encapsulated, vector(packetBytes)"
vector 52 KFatTreeAsync.pod[2].aggregateSwitch[1].eth[0].encap encapPk:vector(packetBytes) ETV
attr interpolationmode none
attr source encapPk
attr title "packets encapsulated, vector(packetBytes)"
vector 53 KFatTreeAsync.pod[2].aggregateSwitch[1].eth[1].encap encapPk:vector(packetBytes) ETV
attr interpolationmode none
attr source encapPk
attr title "packets encapsulated, vector(packetBytes)"
vector 54 KFatTreeAsync.pod[2].aggregateSwitch[1].eth[2].encap encapPk:vector(packetBytes) ETV
attr interpolationmode none
attr source encapPk
attr title "packets encapsulated, vector(packetBytes)"
vector 55 KFatTreeAsync.pod[2].aggregateSwitch[1].eth[3].encap encapPk:vector(packetBytes) ETV
attr interpolationmode none
attr source encapPk
attr title "packets encapsulated, vector(packetBytes)"
vector 56 KFatTreeAsync.pod[2].edgeSwitch[0].eth[0].encap encapPk:vector(packetBytes) ETV
attr interpolationmode none
attr source encapPk
attr title "packets encapsulated, vector(packetBytes)"
vector 57 KFatTreeAsync.pod[2].edgeSwitch[0].eth[1].encap encapPk:vector(packetBytes) ETV
attr interpolationmode none
attr source encapPk
attr title "packets encapsulated, vector(packetBytes)"
vector 58 KFatTreeAsync.pod[2].edgeSwitch[0].eth[2].encap encapPk:vector(packetBytes) ETV
attr interpolationmode none
attr source encapPk
attr title "packets encapsulated, vector(packetBytes)"
vector 59 KFatTreeAsync.pod[2].edgeSwitch[0].eth[3].encap encapPk:vector(packetBytes) ETV
attr interpolationmode none
attr source encapPk
attr title "packets encapsulated, vector(packetBytes)"
vector 60 KFatTreeAsync.pod[2].edgeSwitch[1].eth[0].encap encapPk:vector(packetBytes) ETV
attr interpolationmode none
attr source encapPk
attr title "packets encapsulated, vector(packetBytes)"
vector 61 KFatTreeAsync.pod[2].edgeSwitch[1].eth[1].encap encapPk:vector(packetBytes) ETV
attr interpolationmode none
attr source encapPk
attr title "packets encapsulated, vector(packetBytes)"
vector 62 KFatTreeAsync.pod[2].edgeSwitch[1].eth[2].encap encapPk:vector(packetBytes) ETV
attr interpolationmode none
attr source encapPk
attr title "packets encapsulated, vector(packetBytes)"
vector 63 KFatTreeAsync.pod[2].edgeSwitch[1].eth[3].encap encapPk:vector(packetBytes) ETV
attr interpolationmode none
attr source encapPk
attr title "packets encapsulated, vector(packetBytes)"
vector 64 KFatTreeAsync.pod[3].aggregateSwitch[0].eth[0].encap encapPk:vector(packetBytes) ETV
attr interpolationmode none
attr source encapPk
attr title "packets encapsulated, vector(packetBytes)"
vector 65 KFatTreeAsync.pod[3].aggregateSwitch[0].eth[1].encap encapPk:vector(packetBytes) ETV
attr interpolationmode none
attr source encapPk
attr title "packets encapsulated, vector(packetBytes)"
vector 66 KFatTreeAsync.pod[3].aggregateSwitch[0].eth[2].encap encapPk:vector(packetBytes) ETV
attr interpolationmode none
attr source encapPk
attr title "packets encapsulated, vector(packetBytes)"
vector 67 KFatTreeAsync.pod[3].aggregateSwitch[0].eth[3].encap encapPk:vector(packetBytes) ETV
attr interpolationmode none
attr source encapPk
attr title "packets encapsulated, vector(packetBytes)"
vector 68 KFatTreeAsync.pod[3].aggregateSwitch[1].eth[0].encap encapPk:vector(packetBytes) ETV
attr interpolationmode none
attr source encapPk
attr title "packets encapsulated, vector(packetBytes)"
vector 69 KFatTreeAsync.pod[3].aggregateSwitch[1].eth[1].encap encapPk:vector(packetBytes) ETV
attr interpolationmode none
attr source encapPk
attr title "packets encapsulated, vector(packetBytes)"
vector 70 KFatTreeAsync.pod[3].aggregateSwitch[1].eth[2].encap encapPk:vector(packetBytes) ETV
attr interpolationmode none
attr source encapPk
attr title "packets encapsulated, vector(packetBytes)"
vector 71 KFatTreeAsync.pod[3].aggregateSwitch[1].eth[3].encap encapPk:vector(packetBytes) ETV
attr interpolationmode none
attr source encapPk
attr title "packets encapsulated, vector(packetBytes)"
vector 72 KFatTreeAsync.pod[3].edgeSwitch[0].eth[0].encap encapPk:vector(packetBytes) ETV
attr interpolationmode none
attr source encapPk
attr title "packets encapsulated, vector(packetBytes)"
vector 73 KFatTreeAsync.pod[3].edgeSwitch[0].eth[1].encap encapPk:vector(packetBytes) ETV
attr interpolationmode none
attr source encapPk
attr title "packets encapsulated, vector(packetBytes)"
vector 74 KFatTreeAsync.pod[3].edgeSwitch[0].eth[2].encap encapPk:vector(packetBytes) ETV
attr interpolationmode none
attr source encapPk
attr title "packets encapsulated, vector(packetBytes)"
vector 75 KFatTreeAsync.pod[3].edgeSwitch[0].eth[3].encap encapPk:vector(packetBytes) ETV
attr interpolationmode none
attr source encapPk
attr title "packets encapsulated, vector(packetBytes)"
vector 76 KFatTreeAsync.pod[3].edgeSwitch[1].eth[0].encap encapPk:vector(packetBytes) ETV
attr interpolationmode none
attr source encapPk
attr title "packets encapsulated, vector(packetBytes)"
vector 77 KFatTreeAsync.pod[3].edgeSwitch[1].eth[1].encap encapPk:vector(packetBytes) ETV
attr interpolationmode none
attr source encapPk
attr title "packets encapsulated, vector(packetBytes)"
vector 78 KFatTreeAsync.pod[3].edgeSwitch[1].eth[2].encap encapPk:vector(packetBytes) ETV
attr interpolationmode none
attr source encapPk
attr title "packets encapsulated, vector(packetBytes)"
vector 79 KFatTreeAsync.pod[3].edgeSwitch[1].eth[3].encap encapPk:vector(packetBytes) ETV
attr interpolationmode none
attr source encapPk
attr title "packets encapsulated, vector(packetBytes)"
vector 80 KFatTreeAsync.hosts.replica[0].eth[0].encap encapPk:vector(packetBytes) ETV
attr interpolationmode none
attr source encapPk
attr title "packets encapsulated, vector(packetBytes)"
vector 81 KFatTreeAsync.hosts.replica[1].eth[0].encap encapPk:vector(packetBytes) ETV
attr interpolationmode none
attr source encapPk
attr title "packets encapsulated, vector(packetBytes)"
vector 82 KFatTreeAsync.hosts.replica[2].eth[0].encap encapPk:vector(packetBytes) ETV
attr interpolationmode none
attr source encapPk
attr title "packets encapsulated, vector(packetBytes)"
vector 83 KFatTreeAsync.hosts.replica[3].eth[0].encap encapPk:vector(packetBytes) ETV
attr interpolationmode none
attr source encapPk
attr title "packets encapsulated, vector(packetBytes)"
vector 84 KFatTreeAsync.hosts.replica[4].eth[0].encap encapPk:vector(packetBytes) ETV
attr interpolationmode none
attr source encapPk
attr title "packets encapsulated, vector(packetBytes)"
vector 85 KFatTreeAsync.hosts.replica[5].eth[0].encap encapPk:vector(packetBytes) ETV
attr interpolationmode none
attr source encapPk
attr title "packets encapsulated, vector(packetBytes)"
vector 86 KFatTreeAsync.hosts.replica[6].eth[0].encap encapPk:vector(packetBytes) ETV
attr interpolationmode none
attr source encapPk
attr title "packets encapsulated, vector(packetBytes)"
vector 87 KFatTreeAsync.hosts.replica[7].eth[0].encap encapPk:vector(packetBytes) ETV
attr interpolationmode none
attr source encapPk
attr title "packets encapsulated, vector(packetBytes)"
vector 88 KFatTreeAsync.hosts.replica[8].eth[0].encap encapPk:vector(packetBytes) ETV
attr interpolationmode none
attr source encapPk
attr title "packets encapsulated, vector(packetBytes)"
vector 89 KFatTreeAsync.hosts.replica[9].eth[0].encap encapPk:vector(packetBytes) ETV
attr interpolationmode none
attr source encapPk
attr title "packets encapsulated, vector(packetBytes)"
vector 90 KFatTreeAsync.hosts.replica[10].eth[0].encap encapPk:vector(packetBytes) ETV
attr interpolationmode none
attr source encapPk
attr title "packets encapsulated, vector(packetBytes)"
vector 91 KFatTreeAsync.hosts.replica[11].eth[0].encap encapPk:vector(packetBytes) ETV
attr interpolationmode none
attr source encapPk
attr title "packets encapsulated, vector(packetBytes)"
vector 92 KFatTreeAsync.hosts.replica[12].eth[0].encap encapPk:vector(packetBytes) ETV
attr interpolationmode none
attr source encapPk
attr title "packets encapsulated, vector(packetBytes)"
vector 93 KFatTreeAsync.hosts.replica[13].eth[0].encap encapPk:vector(packetBytes) ETV
attr interpolationmode none
attr source encapPk
attr title "packets encapsulated, vector(packetBytes)"
vector 94 KFatTreeAsync.hosts.replica[14].eth[0].encap encapPk:vector(packetBytes) ETV
attr interpolationmode none
attr source encapPk
attr title "packets encapsulated, vector(packetBytes)"
vector 95 KFatTreeAsync.hosts.client.udp packetSent:vector(packetBytes) ETV
attr interpolationmode none
attr source packetSent
attr title "packets sent, vector(packetBytes)"
vector 96 KFatTreeAsync.coreSwitch[0].eth[0].mac packetReceivedFromUpper:vector(packetBytes) ETV
attr interpolationmode none
attr source packetReceivedFromUpper
attr title "packet bytes from higher layer, vector(packetBytes)"
vector 97 KFatTreeAsync.coreSwitch[0].eth[0].mac.queue packetPushed:vector(packetBytes) ETV
attr interpolationmode none
attr title "packet pushed, vector(packetBytes)"
vector 98 KFatTreeAsync.coreSwitch[0].eth[0].mac.queue queueLength:vector ETV
attr interpolationmode sample-hold
attr source "count(packetPushed) - count(packetPopped) - count(packetRemoved) - count(packetDropped)"
attr title "queue length, vector"
vector 99 KFatTreeAsync.coreSwitch[0].eth[0].mac.queue packetPopped:vector(packetBytes) ETV
attr interpolationmode none
attr title "packet popped, vector(packetBytes)"
vector 100 KFatTreeAsync.coreSwitch[0].eth[0].mac.queue queueingTime:vector ETV
attr interpolationmode none
attr source queueingTime(packetPopped)
attr title "queueing times, vector"
attr unit s
vector 101 KFatTreeAsync.coreSwitch[0].eth[1].mac packetReceivedFromUpper:vector(packetBytes) ETV
attr interpolationmode none
attr source packetReceivedFromUpper
attr title "packet bytes from higher layer, vector(packetBytes)"
vector 102 KFatTreeAsync.coreSwitch[0].eth[1].mac.queue packetPushed:vector(packetBytes) ETV
attr interpolationmode none
attr title "packet pushed, vector(packetBytes)"
vector 103 KFatTreeAsync.coreSwitch[0].eth[1].mac.queue queueLength:vector ETV
attr interpolationmode sample-hold
attr source "count(packetPushed) - count(packetPopped) - count(packetRemoved) - count(packetDropped)"
attr title "queue length, vector"
vector 104 KFatTreeAsync.coreSwitch[0].eth[1].mac.queue packetPopped:vector(packetBytes) ETV
attr interpolationmode none
attr title "packet popped, vector(packetBytes)"
vector 105 KFatTreeAsync.coreSwitch[0].eth[1].mac.queue queueingTime:vector ETV
attr interpolationmode none
attr source queueingTime(packetPopped)
attr title "queueing times, vector"
attr unit s
vector 106 KFatTreeAsync.coreSwitch[0].eth[2].mac packetReceivedFromUpper:vector(packetBytes) ETV
attr interpolationmode none
attr source packetReceivedFromUpper
attr title "packet bytes from higher layer, vector(packetBytes)"
vector 107 KFatTreeAsync.coreSwitch[0].eth[2].mac.queue packetPushed:vector(packetBytes) ETV
attr interpolationmode none
attr title "packet pushed, vector(packetBytes)"
vector 108 KFatTreeAsync.coreSwitch[0].eth[2].mac.queue queueLength:vector ETV
attr interpolationmode sample-hold
attr source "count(packetPushed) - count(packetPopped) - count(packetRemoved) - count(packetDropped)"
attr title "queue length, vector"
vector 109 KFatTreeAsync.coreSwitch[0].eth[2].mac.queue packetPopped:vector(packetBytes) ETV
attr interpolationmode none
attr title "packet popped, vector(packetBytes)"
vector 110 KFatTreeAsync.coreSwitch[0].eth[2].mac.queue queueingTime:vector ETV
attr interpolationmode none
attr source queueingTime(packetPopped)
attr title "queueing times, vector"
attr unit s
vector 111 KFatTreeAsync.coreSwitch[0].eth[3].mac packetReceivedFromUpper:vector(packetBytes) ETV
attr interpolationmode none
attr source packetReceivedFromUpper
attr title "packet bytes from higher layer, vector(packetBytes)"
vector 112 KFatTreeAsync.coreSwitch[0].eth[3].mac.queue packetPushed:vector(packetBytes) ETV
attr interpolationmode none
attr title "packet pushed, vector(packetBytes)"
vector 113 KFatTreeAsync.coreSwitch[0].eth[3].mac.queue queueLength:vector ETV
attr interpolationmode sample-hold
attr source "count(packetPushed) - count(packetPopped) - count(packetRemoved) - count(packetDropped)"
attr title "queue length, vector"
vector 114 KFatTreeAsync.coreSwitch[0].eth[3].mac.queue packetPopped:vector(packetBytes) ETV
attr interpolationmode none
attr title "packet popped, vector(packetBytes)"
vector 115 KFatTreeAsync.coreSwitch[0].eth[3].mac.queue queueingTime:vector ETV
attr interpolationmode none
attr source queueingTime(packetPopped)
attr title "queueing times, vector"
attr unit s
vector 116 KFatTreeAsync.coreSwitch[1].eth[0].mac packetReceivedFromUpper:vector(packetBytes) ETV
attr interpolationmode none
attr source packetReceivedFromUpper
attr title "packet bytes from higher layer, vector(packetBytes)"
vector 117 KFatTreeAsync.coreSwitch[1].eth[0].mac.queue packetPushed:vector(packetBytes) ETV
attr interpolationmode none
attr title "packet pushed, vector(packetBytes)"
vector 118 KFatTreeAsync.coreSwitch[1].eth[0].mac.queue queueLength:vector ETV
attr interpolationmode sample-hold
attr source "count(packetPushed) - count(packetPopped) - count(packetRemoved) - count(packetDropped)"
attr title "queue length, vector"
vector 119 KFatTreeAsync.coreSwitch[1].eth[0].mac.queue packetPopped:vector(packetBytes) ETV
attr interpolationmode none
attr title "packet popped, vector(packetBytes)"
vector 120 KFatTreeAsync.coreSwitch[1].eth[0].mac.queue queueingTime:vector ETV
attr interpolationmode none
attr source queueingTime(packetPopped)
attr title "queueing times, vector"
attr unit s
vector 121 KFatTreeAsync.coreSwitch[1].eth[1].mac packetReceivedFromUpper:vector(packetBytes) ETV
attr interpolationmode none
attr source packetReceivedFromUpper
attr title "packet bytes from higher layer, vector(packetBytes)"
vector 122 KFatTreeAsync.coreSwitch[1].eth[1].mac.queue packetPushed:vector(packetBytes) ETV
attr interpolationmode none
attr title "packet pushed, vector(packetBytes)"
vector 123 KFatTreeAsync.coreSwitch[1].eth[1].mac.queue queueLength:vector ETV
attr interpolationmode sample-hold
attr source "count(packetPushed) - count(packetPopped) - count(packetRemoved) - count(packetDropped)"
attr title "queue length, vector"
vector 124 KFatTreeAsync.coreSwitch[1].eth[1].mac.queue packetPopped:vector(packetBytes) ETV
attr interpolationmode none
attr title "packet popped, vector(packetBytes)"
vector 125 KFatTreeAsync.coreSwitch[1].eth[1].mac.queue queueingTime:vector ETV
attr interpolationmode none
attr source queueingTime(packetPopped)
attr title "queueing times, vector"
attr unit s
vector 126 KFatTreeAsync.coreSwitch[1].eth[2].mac packetReceivedFromUpper:vector(packetBytes) ETV
attr interpolationmode none
attr source packetReceivedFromUpper
attr title "packet bytes from higher layer, vector(packetBytes)"
vector 127 KFatTreeAsync.coreSwitch[1].eth[2].mac.queue packetPushed:vector(packetBytes) ETV
attr interpolationmode none
attr title "packet pushed, vector(packetBytes)"
vector 128 KFatTreeAsync.coreSwitch[1].eth[2].mac.queue queueLength:vector ETV
attr interpolationmode sample-hold
attr source "count(packetPushed) - count(packetPopped) - count(packetRemoved) - count(packetDropped)"
attr title "queue length, vector"
vector 129 KFatTreeAsync.coreSwitch[1].eth[2].mac.queue packetPopped:vector(packetBytes) ETV
attr interpolationmode none
attr title "packet popped, vector(packetBytes)"
vector 130 KFatTreeAsync.coreSwitch[1].eth[2].mac.queue queueingTime:vector ETV
attr interpolationmode none
attr source queueingTime(packetPopped)
attr title "queueing times, vector"
attr unit s
vector 131 KFatTreeAsync.coreSwitch[1].eth[3].mac packetReceivedFromUpper:vector(packetBytes) ETV
attr interpolationmode none
attr source packetReceivedFromUpper
attr title "packet bytes from higher layer, vector(packetBytes)"
vector 132 KFatTreeAsync.coreSwitch[1].eth[3].mac.queue packetPushed:vector(packetBytes) ETV
attr interpolationmode none
attr title "packet pushed, vector(packetBytes)"
vector 133 KFatTreeAsync.coreSwitch[1].eth[3].mac.queue queueLength:vector ETV
attr interpolationmode sample-hold
attr source "count(packetPushed) - count(packetPopped) - count(packetRemoved) - count(packetDropped)"
attr title "queue length, vector"
vector 134 KFatTreeAsync.coreSwitch[1].eth[3].mac.queue packetPopped:vector(packetBytes) ETV
attr interpolationmode none
attr title "packet popped, vector(packetBytes)"
vector 135 KFatTreeAsync.coreSwitch[1].eth[3].mac.queue queueingTime:vector ETV
attr interpolationmode none
attr source queueingTime(packetPopped)
attr title "queueing times, vector"
attr unit s
vector 136 KFatTreeAsync.coreSwitch[2].eth[0].mac packetReceivedFromUpper:vector(packetBytes) ETV
attr interpolationmode none
attr source packetReceivedFromUpper
attr title "packet bytes from higher layer, vector(packetBytes)"
vector 137 KFatTreeAsync.coreSwitch[2].eth[0].mac.queue packetPushed:vector(packetBytes) ETV
attr interpolationmode none
attr title "packet pushed, vector(packetBytes)"
vector 138 KFatTreeAsync.coreSwitch[2].eth[0].mac.queue queueLength:vector ETV
attr interpolationmode sample-hold
attr source "count(packetPushed) - count(packetPopped) - count(packetRemoved) - count(packetDropped)"
attr title "queue length, vector"
vector 139 KFatTreeAsync.coreSwitch[2].eth[0].mac.queue packetPopped:vector(packetBytes) ETV
attr interpolationmode none
attr title "packet popped, vector(packetBytes)"
vector 140 KFatTreeAsync.coreSwitch[2].eth[0].mac.queue queueingTime:vector ETV
attr interpolationmode none
attr source queueingTime(packetPopped)
attr title "queueing times, vector"
attr unit s
vector 141 KFatTreeAsync.coreSwitch[2].eth[1].mac packetReceivedFromUpper:vector(packetBytes) ETV
attr interpolationmode none
attr source packetReceivedFromUpper
attr title "packet bytes from higher layer, vector(packetBytes)"
vector 142 KFatTreeAsync.coreSwitch[2].eth[1].mac.queue packetPushed:vector(packetBytes) ETV
attr interpolationmode none
attr title "packet pushed, vector(packetBytes)"
vector 143 KFatTreeAsync.coreSwitch[2].eth[1].mac.queue queueLength:vector ETV
attr interpolationmode sample-hold
attr source "count(packetPushed) - count(packetPopped) - count(packetRemoved) - count(packetDropped)"
attr title "queue length, vector"
vector 144 KFatTreeAsync.coreSwitch[2].eth[1].mac.queue packetPopped:vector(packetBytes) ETV
attr interpolationmode none
attr title "packet popped, vector(packetBytes)"
vector 145 KFatTreeAsync.coreSwitch[2].eth[1].mac.queue queueingTime:vector ETV
attr interpolationmode none
attr source queueingTime(packetPopped)
attr title "queueing times, vector"
attr unit s
vector 146 KFatTreeAsync.coreSwitch[2].eth[2].mac packetReceivedFromUpper:vector(packetBytes) ETV
attr interpolationmode none
attr source packetReceivedFromUpper
attr title "packet bytes from higher layer, vector(packetBytes)"
vector 147 KFatTreeAsync.coreSwitch[2].eth[2].mac.queue packetPushed:vector(packetBytes) ETV
attr interpolationmode none
attr title "packet pushed, vector(packetBytes)"
vector 148 KFatTreeAsync.coreSwitch[2].eth[2].mac.queue queueLength:vector ETV
attr interpolationmode sample-hold
attr source "count(packetPushed) - count(packetPopped) - count(packetRemoved) - count(packetDropped)"
attr title "queue length, vector"
vector 149 KFatTreeAsync.coreSwitch[2].eth[2].mac.queue packetPopped:vector(packetBytes) ETV
attr interpolationmode none
attr title "packet popped, vector(packetBytes)"
vector 150 KFatTreeAsync.coreSwitch[2].eth[2].mac.queue queueingTime:vector ETV
attr interpolationmode none
attr source queueingTime(packetPopped)
attr title "queueing times, vector"
attr unit s
vector 151 KFatTreeAsync.coreSwitch[2].eth[3].mac packetReceivedFromUpper:vector(packetBytes) ETV
attr interpolationmode none
attr source packetReceivedFromUpper
attr title "packet bytes from higher layer, vector(packetBytes)"
vector 152 KFatTreeAsync.coreSwitch[2].eth[3].mac.queue packetPushed:vector(packetBytes) ETV
attr interpolationmode none
attr title "packet pushed, vector(packetBytes)"
vector 153 KFatTreeAsync.coreSwitch[2].eth[3].mac.queue queueLength:vector ETV
attr interpolationmode sample-hold
attr source "count(packetPushed) - count(packetPopped) - count(packetRemoved) - count(packetDropped)"
attr title "queue length, vector"
vector 154 KFatTreeAsync.coreSwitch[2].eth[3].mac.queue packetPopped:vector(packetBytes) ETV
attr interpolationmode none
attr title "packet popped, vector(packetBytes)"
vector 155 KFatTreeAsync.coreSwitch[2].eth[3].mac.queue queueingTime:vector ETV
attr interpolationmode none
attr source queueingTime(packetPopped)
attr title "queueing times, vector"
attr unit s
vector 156 KFatTreeAsync.coreSwitch[3].eth[0].mac packetReceivedFromUpper:vector(packetBytes) ETV
attr interpolationmode none
attr source packetReceivedFromUpper
attr title "packet bytes from higher layer, vector(packetBytes)"
vector 157 KFatTreeAsync.coreSwitch[3].eth[0].mac.queue packetPushed:vector(packetBytes) ETV
attr interpolationmode none
attr title "packet pushed, vector(packetBytes)"
vector 158 KFatTreeAsync.coreSwitch[3].eth[0].mac.queue queueLength:vector ETV
attr interpolationmode sample-hold
attr source "count(packetPushed) - count(packetPopped) - count(packetRemoved) - count(packetDropped)"
attr title "queue length, vector"
vector 159 KFatTreeAsync.coreSwitch[3].eth[0].mac.queue packetPopped:vector(packetBytes) ETV
attr interpolationmode none
attr title "packet popped, vector(packetBytes)"
vector 160 KFatTreeAsync.coreSwitch[3].eth[0].mac.queue queueingTime:vector ETV
attr interpolationmode none
attr source queueingTime(packetPopped)
attr title "queueing times, vector"
attr unit s
vector 161 KFatTreeAsync.coreSwitch[3].eth[1].mac packetReceivedFromUpper:vector(packetBytes) ETV
attr interpolationmode none
attr source packetReceivedFromUpper
attr title "packet bytes from higher layer, vector(packetBytes)"
vector 162 KFatTreeAsync.coreSwitch[3].eth[1].mac.queue packetPushed:vector(packetBytes) ETV
attr interpolationmode none
attr title "packet pushed, vector(packetBytes)"
vector 163 KFatTreeAsync.coreSwitch[3].eth[1].mac.queue queueLength:vector ETV
attr interpolationmode sample-hold
attr source "count(packetPushed) - count(packetPopped) - count(packetRemoved) - count(packetDropped)"
attr title "queue length, vector"
vector 164 KFatTreeAsync.coreSwitch[3].eth[1].mac.queue packetPopped:vector(packetBytes) ETV
attr interpolationmode none
attr title "packet popped, vector(packetBytes)"
vector 165 KFatTreeAsync.coreSwitch[3].eth[1].mac.queue queueingTime:vector ETV
attr interpolationmode none
attr source queueingTime(packetPopped)
attr title "queueing times, vector"
attr unit s
vector 166 KFatTreeAsync.coreSwitch[3].eth[2].mac packetReceivedFromUpper:vector(packetBytes) ETV
attr interpolationmode none
attr source packetReceivedFromUpper
attr title "packet bytes from higher layer, vector(packetBytes)"
vector 167 KFatTreeAsync.coreSwitch[3].eth[2].mac.queue packetPushed:vector(packetBytes) ETV
attr interpolationmode none
attr title "packet pushed, vector(packetBytes)"
vector 168 KFatTreeAsync.coreSwitch[3].eth[2].mac.queue queueLength:vector ETV
attr interpolationmode sample-hold
attr source "count(packetPushed) - count(packetPopped) - count(packetRemoved) - count(packetDropped)"
attr title "queue length, vector"
vector 169 KFatTreeAsync.coreSwitch[3].eth[2].mac.queue packetPopped:vector(packetBytes) ETV
attr interpolationmode none
attr title "packet popped, vector(packetBytes)"
vector 170 KFatTreeAsync.coreSwitch[3].eth[2].mac.queue queueingTime:vector ETV
attr interpolationmode none
attr source queueingTime(packetPopped)
attr title "queueing times, vector"
attr unit s
vector 171 KFatTreeAsync.coreSwitch[3].eth[3].mac packetReceivedFromUpper:vector(packetBytes) ETV
attr interpolationmode none
attr source packetReceivedFromUpper
attr title "packet bytes from higher layer, vector(packetBytes)"
vector 172 KFatTreeAsync.coreSwitch[3].eth[3].mac.queue packetPushed:vector(packetBytes) ETV
attr interpolationmode none
attr title "packet pushed, vector(packetBytes)"
vector 173 KFatTreeAsync.coreSwitch[3].eth[3].mac.queue queueLength:vector ETV
attr interpolationmode sample-hold
attr source "count(packetPushed) - count(packetPopped) - count(packetRemoved) - count(packetDropped)"
attr title "queue length, vector"
vector 174 KFatTreeAsync.coreSwitch[3].eth[3].mac.queue packetPopped:vector(packetBytes) ETV
attr interpolationmode none
attr title "packet popped, vector(packetBytes)"
vector 175 KFatTreeAsync.coreSwitch[3].eth[3].mac.queue queueingTime:vector ETV
attr interpolationmode none
attr source queueingTime(packetPopped)
attr title "queueing times, vector"
attr unit s
vector 176 KFatTreeAsync.pod[0].aggregateSwitch[0].eth[0].mac packetReceivedFromUpper:vector(packetBytes) ETV
attr interpolationmode none
attr source packetReceivedFromUpper
attr title "packet bytes from higher layer, vector(packetBytes)"
vector 177 KFatTreeAsync.pod[0].aggregateSwitch[0].eth[0].mac.queue packetPushed:vector(packetBytes) ETV
attr interpolationmode none
attr title "packet pushed, vector(packetBytes)"
vector 178 KFatTreeAsync.pod[0].aggregateSwitch[0].eth[0].mac.queue queueLength:vector ETV
attr interpolationmode sample-hold
attr source "count(packetPushed) - count(packetPopped) - count(packetRemoved) - count(packetDropped)"
attr title "queue length, vector"
vector 179 KFatTreeAsync.pod[0].aggregateSwitch[0].eth[0].mac.queue packetPopped:vector(packetBytes) ETV
attr interpolationmode none
attr title "packet popped, vector(packetBytes)"
vector 180 KFatTreeAsync.pod[0].aggregateSwitch[0].eth[0].mac.queue queueingTime:vector ETV
attr interpolationmode none
attr source queueingTime(packetPopped)
attr title "queueing times, vector"
attr unit s
vector 181 KFatTreeAsync.pod[0].aggregateSwitch[0].eth[1].mac packetReceivedFromUpper:vector(packetBytes) ETV
attr interpolationmode none
attr source packetReceivedFromUpper
attr title "packet bytes from higher layer, vector(packetBytes)"
vector 182 KFatTreeAsync.pod[0].aggregateSwitch[0].eth[1].mac.queue packetPushed:vector(packetBytes) ETV
attr interpolationmode none
attr title "packet pushed, vector(packetBytes)"
vector 183 KFatTreeAsync.pod[0].aggregateSwitch[0].eth[1].mac.queue queueLength:vector ETV
attr interpolationmode sample-hold
attr source "count(packetPushed) - count(packetPopped) - count(packetRemoved) - count(packetDropped)"
attr title "queue length, vector"
vector 184 KFatTreeAsync.pod[0].aggregateSwitch[0].eth[1].mac.queue packetPopped:vector(packetBytes) ETV
attr interpolationmode none
attr title "packet popped, vector(packetBytes)"
vector 185 KFatTreeAsync.pod[0].aggregateSwitch[0].eth[1].mac.queue queueingTime:vector ETV
attr interpolationmode none
attr source queueingTime(packetPopped)
attr title "queueing times, vector"
attr unit s
vector 186 KFatTreeAsync.pod[0].aggregateSwitch[0].eth[2].mac packetReceivedFromUpper:vector(packetBytes) ETV
attr interpolationmode none
attr source packetReceivedFromUpper
attr title "packet bytes from higher layer, vector(packetBytes)"
vector 187 KFatTreeAsync.pod[0].aggregateSwitch[0].eth[2].mac.queue packetPushed:vector(packetBytes) ETV
attr interpolationmode none
attr title "packet pushed, vector(packetBytes)"
vector 188 KFatTreeAsync.pod[0].aggregateSwitch[0].eth[2].mac.queue queueLength:vector ETV
attr interpolationmode sample-hold
attr source "count(packetPushed) - count(packetPopped) - count(packetRemoved) - count(packetDropped)"
attr title "queue length, vector"
vector 189 KFatTreeAsync.pod[0].aggregateSwitch[0].eth[2].mac.queue packetPopped:vector(packetBytes) ETV
attr interpolationmode none
attr title "packet popped, vector(packetBytes)"
vector 190 KFatTreeAsync.pod[0].aggregateSwitch[0].eth[2].mac.queue queueingTime:vector ETV
attr interpolationmode none
attr source queueingTime(packetPopped)
attr title "queueing times, vector"
attr unit s
vector 191 KFatTreeAsync.pod[0].aggregateSwitch[0].eth[3].mac packetReceivedFromUpper:vector(packetBytes) ETV
attr interpolationmode none
attr source packetReceivedFromUpper
attr title "packet bytes from higher layer, vector(packetBytes)"
vector 192 KFatTreeAsync.pod[0].aggregateSwitch[0].eth[3].mac.queue packetPushed:vector(packetBytes) ETV
attr interpolationmode none
attr title "packet pushed, vector(packetBytes)"
vector 193 KFatTreeAsync.pod[0].aggregateSwitch[0].eth[3].mac.queue queueLength:vector ETV
attr interpolationmode sample-hold
attr source "count(packetPushed) - count(packetPopped) - count(packetRemoved) - count(packetDropped)"
attr title "queue length, vector"
vector 194 KFatTreeAsync.pod[0].aggregateSwitch[0].eth[3].mac.queue packetPopped:vector(packetBytes) ETV
attr interpolationmode none
attr title "packet popped, vector(packetBytes)"
vector 195 KFatTreeAsync.pod[0].aggregateSwitch[0].eth[3].mac.queue queueingTime:vector ETV
attr interpolationmode none
attr source queueingTime(packetPopped)
attr title "queueing times, vector"
attr unit s
vector 196 KFatTreeAsync.pod[0].aggregateSwitch[1].eth[0].mac packetReceivedFromUpper:vector(packetBytes) ETV
attr interpolationmode none
attr source packetReceivedFromUpper
attr title "packet bytes from higher layer, vector(packetBytes)"
vector 197 KFatTreeAsync.pod[0].aggregateSwitch[1].eth[0].mac.queue packetPushed:vector(packetBytes) ETV
attr interpolationmode none
attr title "packet pushed, vector(packetBytes)"
vector 198 KFatTreeAsync.pod[0].aggregateSwitch[1].eth[0].mac.queue queueLength:vector ETV
attr interpolationmode sample-hold
attr source "count(packetPushed) - count(packetPopped) - count(packetRemoved) - count(packetDropped)"
attr title "queue length, vector"
vector 199 KFatTreeAsync.pod[0].aggregateSwitch[1].eth[0].mac.queue packetPopped:vector(packetBytes) ETV
attr interpolationmode none
attr title "packet popped, vector(packetBytes)"
vector 200 KFatTreeAsync.pod[0].aggregateSwitch[1].eth[0].mac.queue queueingTime:vector ETV
attr interpolationmode none
attr source queueingTime(packetPopped)
attr title "queueing times, vector"
attr unit s
vector 201 KFatTreeAsync.pod[0].aggregateSwitch[1].eth[1].mac packetReceivedFromUpper:vector(packetBytes) ETV
attr interpolationmode none
attr source packetReceivedFromUpper
attr title "packet bytes from higher layer, vector(packetBytes)"
vector 202 KFatTreeAsync.pod[0].aggregateSwitch[1].eth[1].mac.queue packetPushed:vector(packetBytes) ETV
attr interpolationmode none
attr title "packet pushed, vector(packetBytes)"
vector 203 KFatTreeAsync.pod[0].aggregateSwitch[1].eth[1].mac.queue queueLength:vector ETV
attr interpolationmode sample-hold
attr source "count(packetPushed) - count(packetPopped) - count(packetRemoved) - count(packetDropped)"
attr title "queue length, vector"
vector 204 KFatTreeAsync.pod[0].aggregateSwitch[1].eth[1].mac.queue packetPopped:vector(packetBytes) ETV
attr interpolationmode none
attr title "packet popped, vector(packetBytes)"
vector 205 KFatTreeAsync.pod[0].aggregateSwitch[1].eth[1].mac.queue queueingTime:vector ETV
attr interpolationmode none
attr source queueingTime(packetPopped)
attr title "queueing times, vector"
attr unit s
vector 206 KFatTreeAsync.pod[0].aggregateSwitch[1].eth[2].mac packetReceivedFromUpper:vector(packetBytes) ETV
attr interpolationmode none
attr source packetReceivedFromUpper
attr title "packet bytes from higher layer, vector(packetBytes)"
vector 207 KFatTreeAsync.pod[0].aggregateSwitch[1].eth[2].mac.queue packetPushed:vector(packetBytes) ETV
attr interpolationmode none
attr title "packet pushed, vector(packetBytes)"
vector 208 KFatTreeAsync.pod[0].aggregateSwitch[1].eth[2].mac.queue queueLength:vector ETV
attr interpolationmode sample-hold
attr source "count(packetPushed) - count(packetPopped) - count(packetRemoved) - count(packetDropped)"
attr title "queue length, vector"
vector 209 KFatTreeAsync.pod[0].aggregateSwitch[1].eth[2].mac.queue packetPopped:vector(packetBytes) ETV
attr interpolationmode none
attr title "packet popped, vector(packetBytes)"
vector 210 KFatTreeAsync.pod[0].aggregateSwitch[1].eth[2].mac.queue queueingTime:vector ETV
attr interpolationmode none
attr source queueingTime(packetPopped)
attr title "queueing times, vector"
attr unit s
vector 211 KFatTreeAsync.pod[0].aggregateSwitch[1].eth[3].mac packetReceivedFromUpper:vector(packetBytes) ETV
attr interpolationmode none
attr source packetReceivedFromUpper
attr title "packet bytes from higher layer, vector(packetBytes)"
vector 212 KFatTreeAsync.pod[0].aggregateSwitch[1].eth[3].mac.queue packetPushed:vector(packetBytes) ETV
attr interpolationmode none
attr title "packet pushed, vector(packetBytes)"
vector 213 KFatTreeAsync.pod[0].aggregateSwitch[1].eth[3].mac.queue queueLength:vector ETV
attr interpolationmode sample-hold
attr source "count(packetPushed) - count(packetPopped) - count(packetRemoved) - count(packetDropped)"
attr title "queue length, vector"
vector 214 KFatTreeAsync.pod[0].aggregateSwitch[1].eth[3].mac.queue packetPopped:vector(packetBytes) ETV
attr interpolationmode none
attr title "packet popped, vector(packetBytes)"
vector 215 KFatTreeAsync.pod[0].aggregateSwitch[1].eth[3].mac.queue queueingTime:vector ETV
attr interpolationmode none
attr source queueingTime(packetPopped)
attr title "queueing times, vector"
attr unit s
vector 216 KFatTreeAsync.pod[0].edgeSwitch[0].eth[0].mac packetReceivedFromUpper:vector(packetBytes) ETV
attr interpolationmode none
attr source packetReceivedFromUpper
attr title "packet bytes from higher layer, vector(packetBytes)"
vector 217 KFatTreeAsync.pod[0].edgeSwitch[0].eth[0].mac.queue packetPushed:vector(packetBytes) ETV
attr interpolationmode none
attr title "packet pushed, vector(packetBytes)"
vector 218 KFatTreeAsync.pod[0].edgeSwitch[0].eth[0].mac.queue queueLength:vector ETV
attr interpolationmode sample-hold
attr source "count(packetPushed) - count(packetPopped) - count(packetRemoved) - count(packetDropped)"
attr title "queue length, vector"
vector 219 KFatTreeAsync.pod[0].edgeSwitch[0].eth[0].mac.queue packetPopped:vector(packetBytes) ETV
attr interpolationmode none
attr title "packet popped, vector(packetBytes)"
vector 220 KFatTreeAsync.pod[0].edgeSwitch[0].eth[0].mac.queue queueingTime:vector ETV
attr interpolationmode none
attr source queueingTime(packetPopped)
attr title "queueing times, vector"
attr unit s
vector 221 KFatTreeAsync.pod[0].edgeSwitch[0].eth[1].mac packetReceivedFromUpper:vector(packetBytes) ETV
attr interpolationmode none
attr source packetReceivedFromUpper
attr title "packet bytes from higher layer, vector(packetBytes)"
vector 222 KFatTreeAsync.pod[0].edgeSwitch[0].eth[1].mac.queue packetPushed:vector(packetBytes) ETV
attr interpolationmode none
attr title "packet pushed, vector(packetBytes)"
vector 223 KFatTreeAsync.pod[0].edgeSwitch[0].eth[1].mac.queue queueLength:vector ETV
attr interpolationmode sample-hold
attr source "count(packetPushed) - count(packetPopped) - count(packetRemoved) - count(packetDropped)"
attr title "queue length, vector"
vector 224 KFatTreeAsync.pod[0].edgeSwitch[0].eth[1].mac.queue packetPopped:vector(packetBytes) ETV
attr interpolationmode none
attr title "packet popped, vector(packetBytes)"
vector 225 KFatTreeAsync.pod[0].edgeSwitch[0].eth[1].mac.queue queueingTime:vector ETV
attr interpolationmode none
attr source queueingTime(packetPopped)
attr title "queueing times, vector"
attr unit s
vector 226 KFatTreeAsync.pod[0].edgeSwitch[0].eth[2].mac packetReceivedFromUpper:vector(packetBytes) ETV
attr interpolationmode none
attr source packetReceivedFromUpper
attr title "packet bytes from higher layer, vector(packetBytes)"
vector 227 KFatTreeAsync.pod[0].edgeSwitch[0].eth[2].mac.queue packetPushed:vector(packetBytes) ETV
attr interpolationmode none
attr title "packet pushed, vector(packetBytes)"
vector 228 KFatTreeAsync.pod[0].edgeSwitch[0].eth[2].mac.queue queueLength:vector ETV
attr interpolationmode sample-hold
attr source "count(packetPushed) - count(packetPopped) - count(packetRemoved) - count(packetDropped)"
attr title "queue length, vector"
vector 229 KFatTreeAsync.pod[0].edgeSwitch[0].eth[2].mac.queue packetPopped:vector(packetBytes) ETV
attr interpolationmode none
attr title "packet popped, vector(packetBytes)"
vector 230 KFatTreeAsync.pod[0].edgeSwitch[0].eth[2].mac.queue queueingTime:vector ETV
attr interpolationmode none
attr source queueingTime(packetPopped)
attr title "queueing times, vector"
attr unit s
vector 231 KFatTreeAsync.pod[0].edgeSwitch[0].eth[3].mac packetReceivedFromUpper:vector(packetBytes) ETV
attr interpolationmode none
attr source packetReceivedFromUpper
attr title "packet bytes from higher layer, vector(packetBytes)"
vector 232 KFatTreeAsync.pod[0].edgeSwitch[0].eth[3].mac.queue packetPushed:vector(packetBytes) ETV
attr interpolationmode none
attr title "packet pushed, vector(packetBytes)"
vector 233 KFatTreeAsync.pod[0].edgeSwitch[0].eth[3].mac.queue queueLength:vector ETV
attr interpolationmode sample-hold
attr source "count(packetPushed) - count(packetPopped) - count(packetRemoved) - count(packetDropped)"
attr title "queue length, vector"
vector 234 KFatTreeAsync.pod[0].edgeSwitch[0].eth[3].mac.queue packetPopped:vector(packetBytes) ETV
attr interpolationmode none
attr title "packet popped, vector(packetBytes)"
vector 235 KFatTreeAsync.pod[0].edgeSwitch[0].eth[3].mac.queue queueingTime:vector ETV
attr interpolationmode none
attr source queueingTime(packetPopped)
attr title "queueing times, vector"
attr unit s
vector 236 KFatTreeAsync.pod[0].edgeSwitch[1].eth[0].mac packetReceivedFromUpper:vector(packetBytes) ETV
attr interpolationmode none
attr source packetReceivedFromUpper
attr title "packet bytes from higher layer, vector(packetBytes)"
vector 237 KFatTreeAsync.pod[0].edgeSwitch[1].eth[0].mac.queue packetPushed:vector(packetBytes) ETV
attr interpolationmode none
attr title "packet pushed, vector(packetBytes)"
vector 238 KFatTreeAsync.pod[0].edgeSwitch[1].eth[0].mac.queue queueLength:vector ETV
attr interpolationmode sample-hold
attr source "count(packetPushed) - count(packetPopped) - count(packetRemoved) - count(packetDropped)"
attr title "queue length, vector"
vector 239 KFatTreeAsync.pod[0].edgeSwitch[1].eth[0].mac.queue packetPopped:vector(packetBytes) ETV
attr interpolationmode none
attr title "packet popped, vector(packetBytes)"
vector 240 KFatTreeAsync.pod[0].edgeSwitch[1].eth[0].mac.queue queueingTime:vector ETV
attr interpolationmode none
attr source queueingTime(packetPopped)
attr title "queueing times, vector"
attr unit s
vector 241 KFatTreeAsync.pod[0].edgeSwitch[1].eth[1].mac packetReceivedFromUpper:vector(packetBytes) ETV
attr interpolationmode none
attr source packetReceivedFromUpper
attr title "packet bytes from higher layer, vector(packetBytes)"
vector 242 KFatTreeAsync.pod[0].edgeSwitch[1].eth[1].mac.queue packetPushed:vector(packetBytes) ETV
attr interpolationmode none
attr title "packet pushed, vector(packetBytes)"
vector 243 KFatTreeAsync.pod[0].edgeSwitch[1].eth[1].mac.queue queueLength:vector ETV
attr interpolationmode sample-hold
attr source "count(packetPushed) - count(packetPopped) - count(packetRemoved) - count(packetDropped)"
attr title "queue length, vector"
vector 244 KFatTreeAsync.pod[0].edgeSwitch[1].eth[1].mac.queue packetPopped:vector(packetBytes) ETV
attr interpolationmode none
attr title "packet popped, vector(packetBytes)"
vector 245 KFatTreeAsync.pod[0].edgeSwitch[1].eth[1].mac.queue queueingTime:vector ETV
attr interpolationmode none
attr source queueingTime(packetPopped)
attr title "queueing times, vector"
attr unit s
vector 246 KFatTreeAsync.pod[0].edgeSwitch[1].eth[2].mac packetReceivedFromUpper:vector(packetBytes) ETV
attr interpolationmode none
attr source packetReceivedFromUpper
attr title "packet bytes from higher layer, vector(packetBytes)"
vector 247 KFatTreeAsync.pod[0].edgeSwitch[1].eth[2].mac.queue packetPushed:vector(packetBytes) ETV
attr interpolationmode none
attr title "packet pushed, vector(packetBytes)"
vector 248 KFatTreeAsync.pod[0].edgeSwitch[1].eth[2].mac.queue queueLength:vector ETV
attr interpolationmode sample-hold
attr source "count(packetPushed) - count(packetPopped) - count(packetRemoved) - count(packetDropped)"
attr title "queue length, vector"
vector 249 KFatTreeAsync.pod[0].edgeSwitch[1].eth[2].mac.queue packetPopped:vector(packetBytes) ETV
attr interpolationmode none
attr title "packet popped, vector(packetBytes)"
vector 250 KFatTreeAsync.pod[0].edgeSwitch[1].eth[2].mac.queue queueingTime:vector ETV
attr interpolationmode none
attr source queueingTime(packetPopped)
attr title "queueing times, vector"
attr unit s
vector 251 KFatTreeAsync.pod[0].edgeSwitch[1].eth[3].mac packetReceivedFromUpper:vector(packetBytes) ETV
attr interpolationmode none
attr source packetReceivedFromUpper
attr title "packet bytes from higher layer, vector(packetBytes)"
vector 252 KFatTreeAsync.pod[0].edgeSwitch[1].eth[3].mac.queue packetPushed:vector(packetBytes) ETV
attr interpolationmode none
attr title "packet pushed, vector(packetBytes)"
vector 253 KFatTreeAsync.pod[0].edgeSwitch[1].eth[3].mac.queue queueLength:vector ETV
attr interpolationmode sample-hold
attr source "count(packetPushed) - count(packetPopped) - count(packetRemoved) - count(packetDropped)"
attr title "queue length, vector"
vector 254 KFatTreeAsync.pod[0].edgeSwitch[1].eth[3].mac.queue packetPopped:vector(packetBytes) ETV
attr interpolationmode none
attr title "packet popped, vector(packetBytes)"
vector 255 KFatTreeAsync.pod[0].edgeSwitch[1].eth[3].mac.queue queueingTime:vector ETV
attr interpolationmode none
attr source queueingTime(packetPopped)
attr title "queueing times, vector"
attr unit s
vector 256 KFatTreeAsync.pod[1].aggregateSwitch[0].eth[0].mac packetReceivedFromUpper:vector(packetBytes) ETV
attr interpolationmode none
attr source packetReceivedFromUpper
attr title "packet bytes from higher layer, vector(packetBytes)"
vector 257 KFatTreeAsync.pod[1].aggregateSwitch[0].eth[0].mac.queue packetPushed:vector(packetBytes) ETV
attr interpolationmode none
attr title "packet pushed, vector(packetBytes)"
vector 258 KFatTreeAsync.pod[1].aggregateSwitch[0].eth[0].mac.queue queueLength:vector ETV
attr interpolationmode sample-hold
attr source "count(packetPushed) - count(packetPopped) - count(packetRemoved) - count(packetDropped)"
attr title "queue length, vector"
vector 259 KFatTreeAsync.pod[1].aggregateSwitch[0].eth[0].mac.queue packetPopped:vector(packetBytes) ETV
attr interpolationmode none
attr title "packet popped, vector(packetBytes)"
vector 260 KFatTreeAsync.pod[1].aggregateSwitch[0].eth[0].mac.queue queueingTime:vector ETV
attr interpolationmode none
attr source queueingTime(packetPopped)
attr title "queueing times, vector"
attr unit s
vector 261 KFatTreeAsync.pod[1].aggregateSwitch[0].eth[1].mac packetReceivedFromUpper:vector(packetBytes) ETV
attr interpolationmode none
attr source packetReceivedFromUpper
attr title "packet bytes from higher layer, vector(packetBytes)"
vector 262 KFatTreeAsync.pod[1].aggregateSwitch[0].eth[1].mac.queue packetPushed:vector(packetBytes) ETV
attr interpolationmode none
attr title "packet pushed, vector(packetBytes)"
vector 263 KFatTreeAsync.pod[1].aggregateSwitch[0].eth[1].mac.queue queueLength:vector ETV
attr interpolationmode sample-hold
attr source "count(packetPushed) - count(packetPopped) - count(packetRemoved) - count(packetDropped)"
attr title "queue length, vector"
vector 264 KFatTreeAsync.pod[1].aggregateSwitch[0].eth[1].mac.queue packetPopped:vector(packetBytes) ETV
attr interpolationmode none
attr title "packet popped, vector(packetBytes)"
vector 265 KFatTreeAsync.pod[1].aggregateSwitch[0].eth[1].mac.queue queueingTime:vector ETV
attr interpolationmode none
attr source queueingTime(packetPopped)
attr title "queueing times, vector"
attr unit s
vector 266 KFatTreeAsync.pod[1].aggregateSwitch[0].eth[2].mac packetReceivedFromUpper:vector(packetBytes) ETV
attr interpolationmode none
attr source packetReceivedFromUpper
attr title "packet bytes from higher layer, vector(packetBytes)"
vector 267 KFatTreeAsync.pod[1].aggregateSwitch[0].eth[2].mac.queue packetPushed:vector(packetBytes) ETV
attr interpolationmode none
attr title "packet pushed, vector(packetBytes)"
vector 268 KFatTreeAsync.pod[1].aggregateSwitch[0].eth[2].mac.queue queueLength:vector ETV
attr interpolationmode sample-hold
attr source "count(packetPushed) - count(packetPopped) - count(packetRemoved) - count(packetDropped)"
attr title "queue length, vector"
vector 269 KFatTreeAsync.pod[1].aggregateSwitch[0].eth[2].mac.queue packetPopped:vector(packetBytes) ETV
attr interpolationmode none
attr title "packet popped, vector(packetBytes)"
vector 270 KFatTreeAsync.pod[1].aggregateSwitch[0].eth[2].mac.queue queueingTime:vector ETV
attr interpolationmode none
attr source queueingTime(packetPopped)
attr title "queueing times, vector"
attr unit s
vector 271 KFatTreeAsync.pod[1].aggregateSwitch[0].eth[3].mac packetReceivedFromUpper:vector(packetBytes) ETV
attr interpolationmode none
attr source packetReceivedFromUpper
attr title "packet bytes from higher layer, vector(packetBytes)"
vector 272 KFatTreeAsync.pod[1].aggregateSwitch[0].eth[3].mac.queue packetPushed:vector(packetBytes) ETV
attr interpolationmode none
attr title "packet pushed, vector(packetBytes)"
vector 273 KFatTreeAsync.pod[1].aggregateSwitch[0].eth[3].mac.queue queueLength:vector ETV
attr interpolationmode sample-hold
attr source "count(packetPushed) - count(packetPopped) - count(packetRemoved) - count(packetDropped)"
attr title "queue length, vector"
vector 274 KFatTreeAsync.pod[1].aggregateSwitch[0].eth[3].mac.queue packetPopped:vector(packetBytes) ETV
attr interpolationmode none
attr title "packet popped, vector(packetBytes)"
vector 275 KFatTreeAsync.pod[1].aggregateSwitch[0].eth[3].mac.queue queueingTime:vector ETV
attr interpolationmode none
attr source queueingTime(packetPopped)
attr title "queueing times, vector"
attr unit s
vector 276 KFatTreeAsync.pod[1].aggregateSwitch[1].eth[0].mac packetReceivedFromUpper:vector(packetBytes) ETV
attr interpolationmode none
attr source packetReceivedFromUpper
attr title "packet bytes from higher layer, vector(packetBytes)"
vector 277 KFatTreeAsync.pod[1].aggregateSwitch[1].eth[0].mac.queue packetPushed:vector(packetBytes) ETV
attr interpolationmode none
attr title "packet pushed, vector(packetBytes)"
vector 278 KFatTreeAsync.pod[1].aggregateSwitch[1].eth[0].mac.queue queueLength:vector ETV
attr interpolationmode sample-hold
attr source "count(packetPushed) - count(packetPopped) - count(packetRemoved) - count(packetDropped)"
attr title "queue length, vector"
vector 279 KFatTreeAsync.pod[1].aggregateSwitch[1].eth[0].mac.queue packetPopped:vector(packetBytes) ETV
attr interpolationmode none
attr title "packet popped, vector(packetBytes)"
vector 280 KFatTreeAsync.pod[1].aggregateSwitch[1].eth[0].mac.queue queueingTime:vector ETV
attr interpolationmode none
attr source queueingTime(packetPopped)
attr title "queueing times, vector"
attr unit s
vector 281 KFatTreeAsync.pod[1].aggregateSwitch[1].eth[1].mac packetReceivedFromUpper:vector(packetBytes) ETV
attr interpolationmode none
attr source packetReceivedFromUpper
attr title "packet bytes from higher layer, vector(packetBytes)"
vector 282 KFatTreeAsync.pod[1].aggregateSwitch[1].eth[1].mac.queue packetPushed:vector(packetBytes) ETV
attr interpolationmode none
attr title "packet pushed, vector(packetBytes)"
vector 283 KFatTreeAsync.pod[1].aggregateSwitch[1].eth[1].mac.queue queueLength:vector ETV
attr interpolationmode sample-hold
attr source "count(packetPushed) - count(packetPopped) - count(packetRemoved) - count(packetDropped)"
attr title "queue length, vector"
vector 284 KFatTreeAsync.pod[1].aggregateSwitch[1].eth[1].mac.queue packetPopped:vector(packetBytes) ETV
attr interpolationmode none
attr title "packet popped, vector(packetBytes)"
vector 285 KFatTreeAsync.pod[1].aggregateSwitch[1].eth[1].mac.queue queueingTime:vector ETV
attr interpolationmode none
attr source queueingTime(packetPopped)
attr title "queueing times, vector"
attr unit s
vector 286 KFatTreeAsync.pod[1].aggregateSwitch[1].eth[2].mac packetReceivedFromUpper:vector(packetBytes) ETV
attr interpolationmode none
attr source packetReceivedFromUpper
attr title "packet bytes from higher layer, vector(packetBytes)"
vector 287 KFatTreeAsync.pod[1].aggregateSwitch[1].eth[2].mac.queue packetPushed:vector(packetBytes) ETV
attr interpolationmode none
attr title "packet pushed, vector(packetBytes)"
vector 288 KFatTreeAsync.pod[1].aggregateSwitch[1].eth[2].mac.queue queueLength:vector ETV
attr interpolationmode sample-hold
attr source "count(packetPushed) - count(packetPopped) - count(packetRemoved) - count(packetDropped)"
attr title "queue length, vector"
vector 289 KFatTreeAsync.pod[1].aggregateSwitch[1].eth[2].mac.queue packetPopped:vector(packetBytes) ETV
attr interpolationmode none
attr title "packet popped, vector(packetBytes)"
vector 290 KFatTreeAsync.pod[1].aggregateSwitch[1].eth[2].mac.queue queueingTime:vector ETV
attr interpolationmode none
attr source queueingTime(packetPopped)
attr title "queueing times, vector"
attr unit s
vector 291 KFatTreeAsync.pod[1].aggregateSwitch[1].eth[3].mac packetReceivedFromUpper:vector(packetBytes) ETV
attr interpolationmode none
attr source packetReceivedFromUpper
attr title "packet bytes from higher layer, vector(packetBytes)"
vector 292 KFatTreeAsync.pod[1].aggregateSwitch[1].eth[3].mac.queue packetPushed:vector(packetBytes) ETV
attr interpolationmode none
attr title "packet pushed, vector(packetBytes)"
vector 293 KFatTreeAsync.pod[1].aggregateSwitch[1].eth[3].mac.queue queueLength:vector ETV
attr interpolationmode sample-hold
attr source "count(packetPushed) - count(packetPopped) - count(packetRemoved) - count(packetDropped)"
attr title "queue length, vector"
vector 294 KFatTreeAsync.pod[1].aggregateSwitch[1].eth[3].mac.queue packetPopped:vector(packetBytes) ETV
attr interpolationmode none
attr title "packet popped, vector(packetBytes)"
vector 295 KFatTreeAsync.pod[1].aggregateSwitch[1].eth[3].mac.queue queueingTime:vector ETV
attr interpolationmode none
attr source queueingTime(packetPopped)
attr title "queueing times, vector"
attr unit s
vector 296 KFatTreeAsync.pod[1].edgeSwitch[0].eth[0].mac packetReceivedFromUpper:vector(packetBytes) ETV
attr interpolationmode none
attr source packetReceivedFromUpper
attr title "packet bytes from higher layer, vector(packetBytes)"
vector 297 KFatTreeAsync.pod[1].edgeSwitch[0].eth[0].mac.queue packetPushed:vector(packetBytes) ETV
attr interpolationmode none
attr title "packet pushed, vector(packetBytes)"
vector 298 KFatTreeAsync.pod[1].edgeSwitch[0].eth[0].mac.queue queueLength:vector ETV
attr interpolationmode sample-hold
attr source "count(packetPushed) - count(packetPopped) - count(packetRemoved) - count(packetDropped)"
attr title "queue length, vector"
vector 299 KFatTreeAsync.pod[1].edgeSwitch[0].eth[0].mac.queue packetPopped:vector(packetBytes) ETV
attr interpolationmode none
attr title "packet popped, vector(packetBytes)"
vector 300 KFatTreeAsync.pod[1].edgeSwitch[0].eth[0].mac.queue queueingTime:vector ETV
attr interpolationmode none
attr source queueingTime(packetPopped)
attr title "queueing times, vector"
attr unit s
vector 301 KFatTreeAsync.pod[1].edgeSwitch[0].eth[1].mac packetReceivedFromUpper:vector(packetBytes) ETV
attr interpolationmode none
attr source packetReceivedFromUpper
attr title "packet bytes from higher layer, vector(packetBytes)"
vector 302 KFatTreeAsync.pod[1].edgeSwitch[0].eth[1].mac.queue packetPushed:vector(packetBytes) ETV
attr interpolationmode none
attr title "packet pushed, vector(packetBytes)"
vector 303 KFatTreeAsync.pod[1].edgeSwitch[0].eth[1].mac.queue queueLength:vector ETV
attr interpolationmode sample-hold
attr source "count(packetPushed) - count(packetPopped) - count(packetRemoved) - count(packetDropped)"
attr title "queue length, vector"
vector 304 KFatTreeAsync.pod[1].edgeSwitch[0].eth[1].mac.queue packetPopped:vector(packetBytes) ETV
attr interpolationmode none
attr title "packet popped, vector(packetBytes)"
vector 305 KFatTreeAsync.pod[1].edgeSwitch[0].eth[1].mac.queue queueingTime:vector ETV
attr interpolationmode none
attr source queueingTime(packetPopped)
attr title "queueing times, vector"
attr unit s
vector 306 KFatTreeAsync.pod[1].edgeSwitch[0].eth[2].mac packetReceivedFromUpper:vector(packetBytes) ETV
attr interpolationmode none
attr source packetReceivedFromUpper
attr title "packet bytes from higher layer, vector(packetBytes)"
vector 307 KFatTreeAsync.pod[1].edgeSwitch[0].eth[2].mac.queue packetPushed:vector(packetBytes) ETV
attr interpolationmode none
attr title "packet pushed, vector(packetBytes)"
vector 308 KFatTreeAsync.pod[1].edgeSwitch[0].eth[2].mac.queue queueLength:vector ETV
attr interpolationmode sample-hold
attr source "count(packetPushed) - count(packetPopped) - count(packetRemoved) - count(packetDropped)"
attr title "queue length, vector"
vector 309 KFatTreeAsync.pod[1].edgeSwitch[0].eth[2].mac.queue packetPopped:vector(packetBytes) ETV
attr interpolationmode none
attr title "packet popped, vector(packetBytes)"
vector 310 KFatTreeAsync.pod[1].edgeSwitch[0].eth[2].mac.queue queueingTime:vector ETV
attr interpolationmode none
attr source queueingTime(packetPopped)
attr title "queueing times, vector"
attr unit s
vector 311 KFatTreeAsync.pod[1].edgeSwitch[0].eth[3].mac packetReceivedFromUpper:vector(packetBytes) ETV
attr interpolationmode none
attr source packetReceivedFromUpper
attr title "packet bytes from higher layer, vector(packetBytes)"
vector 312 KFatTreeAsync.pod[1].edgeSwitch[0].eth[3].mac.queue packetPushed:vector(packetBytes) ETV
attr interpolationmode none
attr title "packet pushed, vector(packetBytes)"
vector 313 KFatTreeAsync.pod[1].edgeSwitch[0].eth[3].mac.queue queueLength:vector ETV
attr interpolationmode sample-hold
attr source "count(packetPushed) - count(packetPopped) - count(packetRemoved) - count(packetDropped)"
attr title "queue length, vector"
vector 314 KFatTreeAsync.pod[1].edgeSwitch[0].eth[3].mac.queue packetPopped:vector(packetBytes) ETV
attr interpolationmode none
attr title "packet popped, vector(packetBytes)"
vector 315 KFatTreeAsync.pod[1].edgeSwitch[0].eth[3].mac.queue queueingTime:vector ETV
attr interpolationmode none
attr source queueingTime(packetPopped)
attr title "queueing times, vector"
attr unit s
vector 316 KFatTreeAsync.pod[1].edgeSwitch[1].eth[0].mac packetReceivedFromUpper:vector(packetBytes) ETV
attr interpolationmode none
attr source packetReceivedFromUpper
attr title "packet bytes from higher layer, vector(packetBytes)"
vector 317 KFatTreeAsync.pod[1].edgeSwitch[1].eth[0].mac.queue packetPushed:vector(packetBytes) ETV
attr interpolationmode none
attr title "packet pushed, vector(packetBytes)"
vector 318 KFatTreeAsync.pod[1].edgeSwitch[1].eth[0].mac.queue queueLength:vector ETV
attr interpolationmode sample-hold
attr source "count(packetPushed) - count(packetPopped) - count(packetRemoved) - count(packetDropped)"
attr title "queue length, vector"
vector 319 KFatTreeAsync.pod[1].edgeSwitch[1].eth[0].mac.queue packetPopped:vector(packetBytes) ETV
attr interpolationmode none
attr title "packet popped, vector(packetBytes)"
vector 320 KFatTreeAsync.pod[1].edgeSwitch[1].eth[0].mac.queue queueingTime:vector ETV
attr interpolationmode none
attr source queueingTime(packetPopped)
attr title "queueing times, vector"
attr unit s
vector 321 KFatTreeAsync.pod[1].edgeSwitch[1].eth[1].mac packetReceivedFromUpper:vector(packetBytes) ETV
attr interpolationmode none
attr source packetReceivedFromUpper
attr title "packet bytes from higher layer, vector(packetBytes)"
vector 322 KFatTreeAsync.pod[1].edgeSwitch[1].eth[1].mac.queue packetPushed:vector(packetBytes) ETV
attr interpolationmode none
attr title "packet pushed, vector(packetBytes)"
vector 323 KFatTreeAsync.pod[1].edgeSwitch[1].eth[1].mac.queue queueLength:vector ETV
attr interpolationmode sample-hold
attr source "count(packetPushed) - count(packetPopped) - count(packetRemoved) - count(packetDropped)"
attr title "queue length, vector"
vector 324 KFatTreeAsync.pod[1].edgeSwitch[1].eth[1].mac.queue packetPopped:vector(packetBytes) ETV
attr interpolationmode none
attr title "packet popped, vector(packetBytes)"
vector 325 KFatTreeAsync.pod[1].edgeSwitch[1].eth[1].mac.queue queueingTime:vector ETV
attr interpolationmode none
attr source queueingTime(packetPopped)
attr title "queueing times, vector"
attr unit s
vector 326 KFatTreeAsync.pod[1].edgeSwitch[1].eth[2].mac packetReceivedFromUpper:vector(packetBytes) ETV
attr interpolationmode none
attr source packetReceivedFromUpper
attr title "packet bytes from higher layer, vector(packetBytes)"
vector 327 KFatTreeAsync.pod[1].edgeSwitch[1].eth[2].mac.queue packetPushed:vector(packetBytes) ETV
attr interpolationmode none
attr title "packet pushed, vector(packetBytes)"
vector 328 KFatTreeAsync.pod[1].edgeSwitch[1].eth[2].mac.queue queueLength:vector ETV
attr interpolationmode sample-hold
attr source "count(packetPushed) - count(packetPopped) - count(packetRemoved) - count(packetDropped)"
attr title "queue length, vector"
vector 329 KFatTreeAsync.pod[1].edgeSwitch[1].eth[2].mac.queue packetPopped:vector(packetBytes) ETV
attr interpolationmode none
attr title "packet popped, vector(packetBytes)"
vector 330 KFatTreeAsync.pod[1].edgeSwitch[1].eth[2].mac.queue queueingTime:vector ETV
attr interpolationmode none
attr source queueingTime(packetPopped)
attr title "queueing times, vector"
attr unit s
vector 331 KFatTreeAsync.pod[1].edgeSwitch[1].eth[3].mac packetReceivedFromUpper:vector(packetBytes) ETV
attr interpolationmode none
attr source packetReceivedFromUpper
attr title "packet bytes from higher layer, vector(packetBytes)"
vector 332 KFatTreeAsync.pod[1].edgeSwitch[1].eth[3].mac.queue packetPushed:vector(packetBytes) ETV
attr interpolationmode none
attr title "packet pushed, vector(packetBytes)"
vector 333 KFatTreeAsync.pod[1].edgeSwitch[1].eth[3].mac.queue queueLength:vector ETV
attr interpolationmode sample-hold
attr source "count(packetPushed) - count(packetPopped) - count(packetRemoved) - count(packetDropped)"
attr title "queue length, vector"
vector 334 KFatTreeAsync.pod[1].edgeSwitch[1].eth[3].mac.queue packetPopped:vector(packetBytes) ETV
attr interpolationmode none
attr title "packet popped, vector(packetBytes)"
vector 335 KFatTreeAsync.pod[1].edgeSwitch[1].eth[3].mac.queue queueingTime:vector ETV
attr interpolationmode none
attr source queueingTime(packetPopped)
attr title "queueing times, vector"
attr unit s
vector 336 KFatTreeAsync.pod[2].aggregateSwitch[0].eth[0].mac packetReceivedFromUpper:vector(packetBytes) ETV
attr interpolationmode none
attr source packetReceivedFromUpper
attr title "packet bytes from higher layer, vector(packetBytes)"
vector 337 KFatTreeAsync.pod[2].aggregateSwitch[0].eth[0].mac.queue packetPushed:vector(packetBytes) ETV
attr interpolationmode none
attr title "packet pushed, vector(packetBytes)"
vector 338 KFatTreeAsync.pod[2].aggregateSwitch[0].eth[0].mac.queue queueLength:vector ETV
attr interpolationmode sample-hold
attr source "count(packetPushed) - count(packetPopped) - count(packetRemoved) - count(packetDropped)"
attr title "queue length, vector"
vector 339 KFatTreeAsync.pod[2].aggregateSwitch[0].eth[0].mac.queue packetPopped:vector(packetBytes) ETV
attr interpolationmode none
attr title "packet popped, vector(packetBytes)"
vector 340 KFatTreeAsync.pod[2].aggregateSwitch[0].eth[0].mac.queue queueingTime:vector ETV
attr interpolationmode none
attr source queueingTime(packetPopped)
attr title "queueing times, vector"
attr unit s
vector 341 KFatTreeAsync.pod[2].aggregateSwitch[0].eth[1].mac packetReceivedFromUpper:vector(packetBytes) ETV
attr interpolationmode none
attr source packetReceivedFromUpper
attr title "packet bytes from higher layer, vector(packetBytes)"
vector 342 KFatTreeAsync.pod[2].aggregateSwitch[0].eth[1].mac.queue packetPushed:vector(packetBytes) ETV
attr interpolationmode none
attr title "packet pushed, vector(packetBytes)"
vector 343 KFatTreeAsync.pod[2].aggregateSwitch[0].eth[1].mac.queue queueLength:vector ETV
attr interpolationmode sample-hold
attr source "count(packetPushed) - count(packetPopped) - count(packetRemoved) - count(packetDropped)"
attr title "queue length, vector"
vector 344 KFatTreeAsync.pod[2].aggregateSwitch[0].eth[1].mac.queue packetPopped:vector(packetBytes) ETV
attr interpolationmode none
attr title "packet popped, vector(packetBytes)"
vector 345 KFatTreeAsync.pod[2].aggregateSwitch[0].eth[1].mac.queue queueingTime:vector ETV
attr interpolationmode none
attr source queueingTime(packetPopped)
attr title "queueing times, vector"
attr unit s
vector 346 KFatTreeAsync.pod[2].aggregateSwitch[0].eth[2].mac packetReceivedFromUpper:vector(packetBytes) ETV
attr interpolationmode none
attr source packetReceivedFromUpper
attr title "packet bytes from higher layer, vector(packetBytes)"
vector 347 KFatTreeAsync.pod[2].aggregateSwitch[0].eth[2].mac.queue packetPushed:vector(packetBytes) ETV
attr interpolationmode none
attr title "packet pushed, vector(packetBytes)"
vector 348 KFatTreeAsync.pod[2].aggregateSwitch[0].eth[2].mac.queue queueLength:vector ETV
attr interpolationmode sample-hold
attr source "count(packetPushed) - count(packetPopped) - count(packetRemoved) - count(packetDropped)"
attr title "queue length, vector"
vector 349 KFatTreeAsync.pod[2].aggregateSwitch[0].eth[2].mac.queue packetPopped:vector(packetBytes) ETV
attr interpolationmode none
attr title "packet popped, vector(packetBytes)"
vector 350 KFatTreeAsync.pod[2].aggregateSwitch[0].eth[2].mac.queue queueingTime:vector ETV
attr interpolationmode none
attr source queueingTime(packetPopped)
attr title "queueing times, vector"
attr unit s
vector 351 KFatTreeAsync.pod[2].aggregateSwitch[0].eth[3].mac packetReceivedFromUpper:vector(packetBytes) ETV
attr interpolationmode none
attr source packetReceivedFromUpper
attr title "packet bytes from higher layer, vector(packetBytes)"
vector 352 KFatTreeAsync.pod[2].aggregateSwitch[0].eth[3].mac.queue packetPushed:vector(packetBytes) ETV
attr interpolationmode none
attr title "packet pushed, vector(packetBytes)"
vector 353 KFatTreeAsync.pod[2].aggregateSwitch[0].eth[3].mac.queue queueLength:vector ETV
attr interpolationmode sample-hold
attr source "count(packetPushed) - count(packetPopped) - count(packetRemoved) - count(packetDropped)"
attr title "queue length, vector"
vector 354 KFatTreeAsync.pod[2].aggregateSwitch[0].eth[3].mac.queue packetPopped:vector(packetBytes) ETV
attr interpolationmode none
attr title "packet popped, vector(packetBytes)"
vector 355 KFatTreeAsync.pod[2].aggregateSwitch[0].eth[3].mac.queue queueingTime:vector ETV
attr interpolationmode none
attr source queueingTime(packetPopped)
attr title "queueing times, vector"
attr unit s
vector 356 KFatTreeAsync.pod[2].aggregateSwitch[1].eth[0].mac packetReceivedFromUpper:vector(packetBytes) ETV
attr interpolationmode none
attr source packetReceivedFromUpper
attr title "packet bytes from higher layer, vector(packetBytes)"
vector 357 KFatTreeAsync.pod[2].aggregateSwitch[1].eth[0].mac.queue packetPushed:vector(packetBytes) ETV
attr interpolationmode none
attr title "packet pushed, vector(packetBytes)"
vector 358 KFatTreeAsync.pod[2].aggregateSwitch[1].eth[0].mac.queue queueLength:vector ETV
attr interpolationmode sample-hold
attr source "count(packetPushed) - count(packetPopped) - count(packetRemoved) - count(packetDropped)"
attr title "queue length, vector"
vector 359 KFatTreeAsync.pod[2].aggregateSwitch[1].eth[0].mac.queue packetPopped:vector(packetBytes) ETV
attr interpolationmode none
attr title "packet popped, vector(packetBytes)"
vector 360 KFatTreeAsync.pod[2].aggregateSwitch[1].eth[0].mac.queue queueingTime:vector ETV
attr interpolationmode none
attr source queueingTime(packetPopped)
attr title "queueing times, vector"
attr unit s
vector 361 KFatTreeAsync.pod[2].aggregateSwitch[1].eth[1].mac packetReceivedFromUpper:vector(packetBytes) ETV
attr interpolationmode none
attr source packetReceivedFromUpper
attr title "packet bytes from higher layer, vector(packetBytes)"
vector 362 KFatTreeAsync.pod[2].aggregateSwitch[1].eth[1].mac.queue packetPushed:vector(packetBytes) ETV
attr interpolationmode none
attr title "packet pushed, vector(packetBytes)"
vector 363 KFatTreeAsync.pod[2].aggregateSwitch[1].eth[1].mac.queue queueLength:vector ETV
attr interpolationmode sample-hold
attr source "count(packetPushed) - count(packetPopped) - count(packetRemoved) - count(packetDropped)"
attr title "queue length, vector"
vector 364 KFatTreeAsync.pod[2].aggregateSwitch[1].eth[1].mac.queue packetPopped:vector(packetBytes) ETV
attr interpolationmode none
attr title "packet popped, vector(packetBytes)"
vector 365 KFatTreeAsync.pod[2].aggregateSwitch[1].eth[1].mac.queue queueingTime:vector ETV
attr interpolationmode none
attr source queueingTime(packetPopped)
attr title "queueing times, vector"
attr unit s
vector 366 KFatTreeAsync.pod[2].aggregateSwitch[1].eth[2].mac packetReceivedFromUpper:vector(packetBytes) ETV
attr interpolationmode none
attr source packetReceivedFromUpper
attr title "packet bytes from higher layer, vector(packetBytes)"
vector 367 KFatTreeAsync.pod[2].aggregateSwitch[1].eth[2].mac.queue packetPushed:vector(packetBytes) ETV
attr interpolationmode none
attr title "packet pushed, vector(packetBytes)"
vector 368 KFatTreeAsync.pod[2].aggregateSwitch[1].eth[2].mac.queue queueLength:vector ETV
attr interpolationmode sample-hold
attr source "count(packetPushed) - count(packetPopped) - count(packetRemoved) - count(packetDropped)"
attr title "queue length, vector"
vector 369 KFatTreeAsync.pod[2].aggregateSwitch[1].eth[2].mac.queue packetPopped:vector(packetBytes) ETV
attr interpolationmode none
attr title "packet popped, vector(packetBytes)"
vector 370 KFatTreeAsync.pod[2].aggregateSwitch[1].eth[2].mac.queue queueingTime:vector ETV
attr interpolationmode none
attr source queueingTime(packetPopped)
attr title "queueing times, vector"
attr unit s
vector 371 KFatTreeAsync.pod[2].aggregateSwitch[1].eth[3].mac packetReceivedFromUpper:vector(packetBytes) ETV
attr interpolationmode none
attr source packetReceivedFromUpper
attr title "packet bytes from higher layer, vector(packetBytes)"
vector 372 KFatTreeAsync.pod[2].aggregateSwitch[1].eth[3].mac.queue packetPushed:vector(packetBytes) ETV
attr interpolationmode none
attr title "packet pushed, vector(packetBytes)"
vector 373 KFatTreeAsync.pod[2].aggregateSwitch[1].eth[3].mac.queue queueLength:vector ETV
attr interpolationmode sample-hold
attr source "count(packetPushed) - count(packetPopped) - count(packetRemoved) - count(packetDropped)"
attr title "queue length, vector"
vector 374 KFatTreeAsync.pod[2].aggregateSwitch[1].eth[3].mac.queue packetPopped:vector(packetBytes) ETV
attr interpolationmode none
attr title "packet popped, vector(packetBytes)"
vector 375 KFatTreeAsync.pod[2].aggregateSwitch[1].eth[3].mac.queue queueingTime:vector ETV
attr interpolationmode none
attr source queueingTime(packetPopped)
attr title "queueing times, vector"
attr unit s
vector 376 KFatTreeAsync.pod[2].edgeSwitch[0].eth[0].mac packetReceivedFromUpper:vector(packetBytes) ETV
attr interpolationmode none
attr source packetReceivedFromUpper
attr title "packet bytes from higher layer, vector(packetBytes)"
vector 377 KFatTreeAsync.pod[2].edgeSwitch[0].eth[0].mac.queue packetPushed:vector(packetBytes) ETV
attr interpolationmode none
attr title "packet pushed, vector(packetBytes)"
vector 378 KFatTreeAsync.pod[2].edgeSwitch[0].eth[0].mac.queue queueLength:vector ETV
attr interpolationmode sample-hold
attr source "count(packetPushed) - count(packetPopped) - count(packetRemoved) - count(packetDropped)"
attr title "queue length, vector"
vector 379 KFatTreeAsync.pod[2].edgeSwitch[0].eth[0].mac.queue packetPopped:vector(packetBytes) ETV
attr interpolationmode none
attr title "packet popped, vector(packetBytes)"
vector 380 KFatTreeAsync.pod[2].edgeSwitch[0].eth[0].mac.queue queueingTime:vector ETV
attr interpolationmode none
attr source queueingTime(packetPopped)
attr title "queueing times, vector"
attr unit s
vector 381 KFatTreeAsync.pod[2].edgeSwitch[0].eth[1].mac packetReceivedFromUpper:vector(packetBytes) ETV
attr interpolationmode none
attr source packetReceivedFromUpper
attr title "packet bytes from higher layer, vector(packetBytes)"
vector 382 KFatTreeAsync.pod[2].edgeSwitch[0].eth[1].mac.queue packetPushed:vector(packetBytes) ETV
attr interpolationmode none
attr title "packet pushed, vector(packetBytes)"
vector 383 KFatTreeAsync.pod[2].edgeSwitch[0].eth[1].mac.queue queueLength:vector ETV
attr interpolationmode sample-hold
[...]
86	223182 26 1223 1223 5.448831773829 5.448831773829 1 32 32 32 1024
88	223208 26 1203 1203 4.236547967885 4.236547967885 1 32 32 32 1024
91	223234 26 1193 1193 3.843817082234 3.843817082234 1 32 32 32 1024
92	223260 26 1213 1213 4.375872099772 4.375872099772 1 32 32 32 1024
93	223286 26 1183 1183 2.975346052554 2.975346052554 1 32 32 32 1024
101	223312 28 1127 1127 0.00000380992 0.00000380992 1 1296 1296 1296 1679616
102	223340 28 1127 1127 0.00000380992 0.00000380992 1 1296 1296 1296 1679616
103	223368 50 1127 1127 0.00000380992 0.00000380992 2 0 1 1 1
104	223418 28 1127 1127 0.00000380992 0.00000380992 1 1296 1296 1296 1679616
105	223446 25 1127 1127 0.00000380992 0.00000380992 1 0 0 0 0
106	223471 28 1128 1128 0.00000380992 0.00000380992 1 1296 1296 1296 1679616
107	223499 28 1128 1128 0.00000380992 0.00000380992 1 1296 1296 1296 1679616
108	223527 50 1128 1128 0.00000380992 0.00000380992 2 0 1 1 1
109	223577 28 1128 1128 0.00000380992 0.00000380992 1 1296 1296 1296 1679616
110	223605 25 1128 1128 0.00000380992 0.00000380992 1 0 0 0 0
111	223630 28 1129 1129 0.00000380992 0.00000380992 1 1296 1296 1296 1679616
112	223658 28 1129 1129 0.00000380992 0.00000380992 1 1296 1296 1296 1679616
113	223686 50 1129 1129 0.00000380992 0.00000380992 2 0 1 1 1
114	223736 28 1129 1129 0.00000380992 0.00000380992 1 1296 1296 1296 1679616
115	223764 25 1129 1129 0.00000380992 0.00000380992 1 0 0 0 0
176	223789 27 1102 1102 0.0000037056 0.0000037056 1 1296 1296 1296 1679616
177	223816 27 1102 1102 0.0000037056 0.0000037056 1 1296 1296 1296 1679616
178	223843 48 1102 1102 0.0000037056 0.0000037056 2 0 1 1 1
179	223891 27 1102 1102 0.0000037056 0.0000037056 1 1296 1296 1296 1679616
180	223918 24 1102 1102 0.0000037056 0.0000037056 1 0 0 0 0
186	223942 52 941 1103 0.00000117376 0.0000037056 2 46 1296 1342 1681732
187	223994 52 941 1103 0.00000117376 0.0000037056 2 64 1296 1360 1683712
188	224046 96 941 1103 0.00000117376 0.0000037056 4 0 1 2 2
189	224142 52 941 1103 0.00000117376 0.0000037056 2 64 1296 1360 1683712
190	224194 48 941 1103 0.00000117376 0.0000037056 2 0 0 0 0
191	224242 80 956 1041 0.00000128384 0.00000337792 3 46 1296 2638 3361348
192	224322 80 956 1041 0.00000128384 0.00000337792 3 64 1296 2656 3363328
193	224402 146 956 1041 0.00000128384 0.00000337792 6 0 1 3 3
194	224548 80 956 1041 0.00000128384 0.00000337792 3 64 1296 2656 3363328
195	224628 73 956 1041 0.00000128384 0.00000337792 3 0 0 0 0
196	224701 27 1104 1104 0.0000037056 0.0000037056 1 1296 1296 1296 1679616
197	224728 27 1104 1104 0.0000037056 0.0000037056 1 1296 1296 1296 1679616
198	224755 48 1104 1104 0.0000037056 0.0000037056 2 0 1 1 1
199	224803 27 1104 1104 0.0000037056 0.0000037056 1 1296 1296 1296 1679616
200	224830 24 1104 1104 0.0000037056 0.0000037056 1 0 0 0 0
206	224854 27 1105 1105 0.0000037056 0.0000037056 1 1296 1296 1296 1679616
207	224881 27 1105 1105 0.0000037056 0.0000037056 1 1296 1296 1296 1679616
208	224908 48 1105 1105 0.0000037056 0.0000037056 2 0 1 1 1
209	224956 27 1105 1105 0.0000037056 0.0000037056 1 1296 1296 1296 1679616
210	224983 24 1105 1105 0.0000037056 0.0000037056 1 0 0 0 0
221	225007 50 998 1012 0.0000022208 0.000002336 2 46 1296 1342 1681732
222	225057 50 998 1012 0.0000022208 0.000002336 2 64 1296 1360 1683712
223	225107 92 998 1012 0.0000022208 0.000002336 4 0 1 2 2
224	225199 50 998 1012 0.0000022208 0.000002336 2 64 1296 1360 1683712
225	225249 46 998 1012 0.0000022208 0.000002336 2 0 0 0 0
226	225295 77 935 1034 0.000001168 0.0000032736 3 46 1296 2638 3361348
227	225372 77 935 1034 0.000001168 0.0000032736 3 64 1296 2656 3363328
228	225449 140 935 1034 0.000001168 0.0000032736 6 0 1 3 3
229	225589 77 935 1034 0.000001168 0.0000032736 3 64 1296 2656 3363328
230	225666 70 935 1034 0.000001168 0.0000032736 3 0 0 0 0
236	225736 52 977 991 0.00000139968 0.00000151488 2 46 1296 1342 1681732
237	225788 52 977 991 0.00000139968 0.00000151488 2 64 1296 1360 1683712
238	225840 96 977 991 0.00000139968 0.00000151488 4 0 1 2 2
239	225936 52 977 991 0.00000139968 0.00000151488 2 64 1296 1360 1683712
240	225988 48 977 991 0.00000139968 0.00000151488 2 0 0 0 0
241	226036 82 1063 1087 0.00000348224 0.00000360128 3 46 1296 2638 3361348
242	226118 82 1063 1087 0.00000348224 0.00000360128 3 64 1296 2656 3363328
243	226200 150 1063 1168 0.00000348224 0.00000465024 6 0 1 3 3
244	226350 82 1063 1168 0.00000348224 0.00000465024 3 64 1296 2656 3363328
245	226432 85 1063 1168 0.00000348224 0.00000465024 3 0 1.04896e-06 1.04896e-06 1.1003170816e-12
246	226517 52 963 1085 0.0000012896 0.00000360128 2 46 1296 1342 1681732
247	226569 52 963 1085 0.0000012896 0.00000360128 2 64 1296 1360 1683712
248	226621 96 963 1085 0.0000012896 0.00000360128 4 0 1 2 2
249	226717 52 963 1085 0.0000012896 0.00000360128 2 64 1296 1360 1683712
250	226769 48 963 1085 0.0000012896 0.00000360128 2 0 0 0 0
251	226817 28 1086 1086 0.00000360128 0.00000360128 1 1296 1296 1296 1679616
252	226845 28 1086 1086 0.00000360128 0.00000360128 1 1296 1296 1296 1679616
253	226873 50 1086 1086 0.00000360128 0.00000360128 2 0 1 1 1
254	226923 28 1086 1086 0.00000360128 0.00000360128 1 1296 1296 1296 1679616
255	226951 25 1086 1086 0.00000360128 0.00000360128 1 0 0 0 0
496	226976 80 984 1234 0.00000145728 5.488135023043 3 46 1296 1392 1684232
497	227056 80 984 1234 0.00000145728 5.488135023043 3 64 1296 1424 1687808
498	227136 150 984 1234 0.00000145728 5.488135023043 6 0 1 3 3
499	227286 80 984 1234 0.00000145728 5.488135023043 3 64 1296 1424 1687808
500	227366 75 984 1234 0.00000145728 5.488135023043 3 0 0 0 0
501	227441 52 1005 1054 0.0000022784 0.0000033792 2 46 1296 1342 1681732
502	227493 52 1005 1054 0.0000022784 0.0000033792 2 64 1296 1360 1683712
503	227545 96 1005 1054 0.0000022784 0.0000033792 4 0 1 2 2
504	227641 52 1005 1054 0.0000022784 0.0000033792 2 64 1296 1360 1683712
505	227693 48 1005 1054 0.0000022784 0.0000033792 2 0 0 0 0
506	227741 54 1070 1165 0.00000353984 0.00000464064 2 46 1296 1342 1681732
507	227795 54 1070 1165 0.00000353984 0.00000464064 2 64 1296 1360 1683712
508	227849 100 1070 1165 0.00000353984 0.00000464064 4 0 1 2 2
509	227949 54 1070 1165 0.00000353984 0.00000464064 2 64 1296 1360 1683712
510	228003 50 1070 1165 0.00000353984 0.00000464064 2 0 0 0 0
526	228053 27 1224 1224 5.448831773829 5.448831773829 1 50 50 50 2500
527	228080 27 1224 1224 5.448831773829 5.448831773829 1 64 64 64 4096
528	228107 52 1224 1224 5.448831773829 5.448831773829 2 0 1 1 1
529	228159 27 1224 1224 5.448831773829 5.448831773829 1 64 64 64 4096
530	228186 26 1224 1224 5.448831773829 5.448831773829 1 0 0 0 0
536	228212 27 1204 1204 4.236547967885 4.236547967885 1 50 50 50 2500
537	228239 27 1204 1204 4.236547967885 4.236547967885 1 64 64 64 4096
538	228266 52 1204 1204 4.236547967885 4.236547967885 2 0 1 1 1
539	228318 27 1204 1204 4.236547967885 4.236547967885 1 64 64 64 4096
540	228345 26 1204 1204 4.236547967885 4.236547967885 1 0 0 0 0
551	228371 27 1194 1194 3.843817082234 3.843817082234 1 50 50 50 2500
552	228398 27 1194 1194 3.843817082234 3.843817082234 1 64 64 64 4096
553	228425 52 1194 1194 3.843817082234 3.843817082234 2 0 1 1 1
554	228477 27 1194 1194 3.843817082234 3.843817082234 1 64 64 64 4096
555	228504 26 1194 1194 3.843817082234 3.843817082234 1 0 0 0 0
556	228530 27 1214 1214 4.375872099772 4.375872099772 1 50 50 50 2500
557	228557 27 1214 1214 4.375872099772 4.375872099772 1 64 64 64 4096
558	228584 52 1214 1214 4.375872099772 4.375872099772 2 0 1 1 1
559	228636 27 1214 1214 4.375872099772 4.375872099772 1 64 64 64 4096
560	228663 26 1214 1214 4.375872099772 4.375872099772 1 0 0 0 0
561	228689 27 1184 1184 2.975346052554 2.975346052554 1 50 50 50 2500
562	228716 27 1184 1184 2.975346052554 2.975346052554 1 64 64 64 4096
563	228743 52 1184 1184 2.975346052554 2.975346052554 2 0 1 1 1
564	228795 27 1184 1184 2.975346052554 2.975346052554 1 64 64 64 4096
565	228822 26 1184 1184 2.975346052554 2.975346052554 1 0 0 0 0
572	228848 78 923 925 0.0000001248 0.0000001248 3 1278 1278 3834 4899852
573	228926 78 926 928 0.0000001248 0.0000001248 3 1296 1296 3888 5038848
574	229004 78 926 928 0.0000001248 0.0000001248 3 1296 1296 3888 5038848
575	229082 138 926 999 0.0000001248 0.0000022304 6 0 2 5 7
576	229220 78 926 999 0.0000001248 0.0000022304 3 1296 1296 3888 5038848
577	229298 87 926 999 0.0000001248 0.0000022304 3 0 2.1056e-06 3.1584e-06 5.5419392e-12
581	229385 28 1134 1134 0.00000391424 0.00000391424 1 1296 1296 1296 1679616
582	229413 28 1134 1134 0.00000391424 0.00000391424 1 1296 1296 1296 1679616
583	229441 28 1135 1135 0.00000391424 0.00000391424 1 1296 1296 1296 1679616
584	229469 28 1136 1136 0.00000391424 0.00000391424 1 1296 1296 1296 1679616
585	229497 28 1136 1136 0.00000391424 0.00000391424 1 1296 1296 1296 1679616
586	229525 28 1137 1137 0.00000391424 0.00000391424 1 1296 1296 1296 1679616
587	229553 28 1138 1138 0.00000391424 0.00000391424 1 1296 1296 1296 1679616
588	229581 28 1138 1138 0.00000391424 0.00000391424 1 1296 1296 1296 1679616
589	229609 28 1139 1139 0.00000391424 0.00000391424 1 1296 1296 1296 1679616
626	229637 28 1108 1108 0.00000380992 0.00000380992 1 1296 1296 1296 1679616
627	229665 28 1108 1108 0.00000380992 0.00000380992 1 1296 1296 1296 1679616
628	229693 28 1109 1109 0.00000380992 0.00000380992 1 1296 1296 1296 1679616
632	229721 53 944 1110 0.00000117952 0.00000380992 2 64 1296 1360 1683712
633	229774 53 944 1110 0.00000117952 0.00000380992 2 64 1296 1360 1683712
634	229827 53 945 1111 0.00000117952 0.00000380992 2 64 1296 1360 1683712
635	229880 79 958 1058 0.0000012896 0.00000348224 3 64 1296 2656 3363328
636	229959 79 958 1058 0.0000012896 0.00000348224 3 64 1296 2656 3363328
637	230038 79 959 1059 0.0000012896 0.00000348224 3 64 1296 2656 3363328
638	230117 28 1112 1112 0.00000380992 0.00000380992 1 1296 1296 1296 1679616
639	230145 28 1112 1112 0.00000380992 0.00000380992 1 1296 1296 1296 1679616
640	230173 28 1113 1113 0.00000380992 0.00000380992 1 1296 1296 1296 1679616
644	230201 28 1114 1114 0.00000380992 0.00000380992 1 1296 1296 1296 1679616
645	230229 28 1114 1114 0.00000380992 0.00000380992 1 1296 1296 1296 1679616
646	230257 28 1115 1115 0.00000380992 0.00000380992 1 1296 1296 1296 1679616
650	230285 80 936 1036 0.00000117376 0.00000337792 3 64 1296 2656 3363328
651	230365 80 936 1036 0.00000117376 0.00000337792 3 64 1296 2656 3363328
652	230445 80 937 1037 0.00000117376 0.00000337792 3 64 1296 2656 3363328
656	230525 52 965 1090 0.00000129536 0.0000037056 2 64 1296 1360 1683712
657	230577 52 965 1090 0.00000129536 0.0000037056 2 64 1296 1360 1683712
658	230629 52 966 1091 0.00000129536 0.0000037056 2 64 1296 1360 1683712
659	230681 27 1092 1092 0.0000037056 0.0000037056 1 1296 1296 1296 1679616
660	230708 27 1092 1092 0.0000037056 0.0000037056 1 1296 1296 1296 1679616
661	230735 27 1093 1093 0.0000037056 0.0000037056 1 1296 1296 1296 1679616
771	230762 28 1140 1140 0.00000391424 0.00000391424 1 1278 1278 1278 1633284
772	230790 28 1141 1141 0.00000391424 0.00000391424 1 1278 1278 1278 1633284
773	230818 28 1142 1142 0.00000391424 0.00000391424 1 1278 1278 1278 1633284
786	230846 28 1116 1116 0.00000380992 0.00000380992 1 1278 1278 1278 1633284
788	230874 53 946 1117 0.00000117952 0.00000380992 2 46 1278 1324 1635400
789	230927 79 960 1060 0.0000012896 0.00000348224 3 46 1278 2602 3268684
790	231006 28 1118 1118 0.00000380992 0.00000380992 1 1278 1278 1278 1633284
792	231034 28 1119 1119 0.00000380992 0.00000380992 1 1278 1278 1278 1633284
794	231062 80 938 1038 0.00000117376 0.00000337792 3 46 1278 2602 3268684
796	231142 52 967 1094 0.00000129536 0.0000037056 2 46 1278 1324 1635400
797	231194 27 1095 1095 0.0000037056 0.0000037056 1 1278 1278 1278 1633284
836	231221 24 920 920 0.0000001248 0.0000001248 1 64 64 64 4096
837	231245 52 1000 1043 0.0000022784 0.0000033792 2 64 1296 1360 1683712
838	231297 52 1000 1043 0.0000022784 0.0000033792 2 64 1296 1360 1683712
839	231349 52 1001 1044 0.0000022784 0.0000033792 2 64 1296 1360 1683712
840	231401 53 979 1014 0.00000145728 0.00000255808 2 64 1296 1360 1683712
841	231454 53 979 1014 0.00000145728 0.00000255808 2 64 1296 1360 1683712
842	231507 53 980 1015 0.00000145728 0.00000255808 2 64 1296 1360 1683712
843	231560 82 1065 1173 0.00000353984 0.00000569344 3 64 1296 2656 3363328
844	231642 82 1065 1173 0.00000353984 0.00000569344 3 64 1296 2656 3363328
845	231724 82 1066 1174 0.00000353984 0.00000569344 3 64 1296 2656 3363328
882	231806 80 986 1235 0.00000151488 5.488135080643 3 64 1296 1424 1687808
883	231886 80 986 1235 0.00000151488 5.488135080643 3 64 1296 1424 1687808
884	231966 53 987 1079 0.00000151488 0.00000360128 2 64 1296 1360 1683712
885	232019 51 1007 1149 0.000002336 0.0000044224 2 64 1296 1360 1683712
886	232070 51 1007 1149 0.000002336 0.0000044224 2 64 1296 1360 1683712
887	232121 51 1008 1150 0.000002336 0.0000044224 2 64 1296 1360 1683712
888	232172 54 1072 1169 0.00000359744 0.00000568384 2 64 1296 1360 1683712
889	232226 54 1072 1169 0.00000359744 0.00000568384 2 64 1296 1360 1683712
890	232280 54 1073 1170 0.00000359744 0.00000568384 2 64 1296 1360 1683712
900	232334 27 1225 1225 5.448831831429 5.448831831429 1 64 64 64 4096
901	232361 27 1225 1225 5.448831831429 5.448831831429 1 64 64 64 4096
902	232388 27 1226 1226 5.448831831429 5.448831831429 1 64 64 64 4096
906	232415 27 1205 1205 4.236548025485 4.236548025485 1 64 64 64 4096
907	232442 27 1205 1205 4.236548025485 4.236548025485 1 64 64 64 4096
908	232469 27 1206 1206 4.236548025485 4.236548025485 1 64 64 64 4096
915	232496 27 1195 1195 3.843817139834 3.843817139834 1 64 64 64 4096
916	232523 27 1195 1195 3.843817139834 3.843817139834 1 64 64 64 4096
917	232550 27 1196 1196 3.843817139834 3.843817139834 1 64 64 64 4096
918	232577 27 1215 1215 4.375872157372 4.375872157372 1 64 64 64 4096
919	232604 27 1215 1215 4.375872157372 4.375872157372 1 64 64 64 4096
920	232631 27 1216 1216 4.375872157372 4.375872157372 1 64 64 64 4096
921	232658 27 1185 1185 2.975346110154 2.975346110154 1 64 64 64 4096
922	232685 27 1185 1185 2.975346110154 2.975346110154 1 64 64 64 4096
923	232712 27 1186 1186 2.975346110154 2.975346110154 1 64 64 64 4096
927	232739 78 930 1029 0.000001168 0.0000032736 3 1296 1296 3888 5038848
928	232817 78 930 1029 0.000001168 0.0000032736 3 1296 1296 3888 5038848
929	232895 78 931 1030 0.000001168 0.0000032736 3 1296 1296 3888 5038848
930	232973 24 921 921 0.0000001248 0.0000001248 1 46 46 46 2116
931	232997 52 1002 1045 0.0000022784 0.0000033792 2 46 1278 1324 1635400
932	233049 53 981 1016 0.00000145728 0.00000255808 2 46 1278 1324 1635400
933	233102 82 1067 1176 0.00000353984 0.00000569344 3 46 1278 2602 3268684
946	233184 53 988 1080 0.00000151488 0.00000360128 2 46 1278 1324 1635400
947	233237 51 1009 1151 0.000002336 0.0000044224 2 46 1278 1324 1635400
948	233288 54 1074 1171 0.00000359744 0.00000568384 2 46 1278 1324 1635400
952	233342 27 1227 1227 5.448831831429 5.448831831429 1 46 46 46 2116
954	233369 27 1207 1207 4.236548025485 4.236548025485 1 46 46 46 2116
957	233396 27 1197 1197 3.843817139834 3.843817139834 1 46 46 46 2116
958	233423 27 1217 1217 4.375872157372 4.375872157372 1 46 46 46 2116
959	233450 27 1187 1187 2.975346110154 2.975346110154 1 46 46 46 2116
961	233477 78 932 1031 0.000001168 0.0000032736 3 1278 1278 3834 4899852
963	233555 47 933 996 0.000001168 0.0000022208 2 28 28 56 1568
964	233602 25 939 939 0.00000117376 0.00000117376 1 28 28 28 784
965	233627 25 954 954 0.00000128384 0.00000128384 1 28 28 28 784
966	233652 24 961 961 0.0000012896 0.0000012896 1 28 28 28 784
967	233676 51 975 1061 0.00000139968 0.00000348224 2 28 28 56 1568
968	233727 25 982 982 0.00000145728 0.00000145728 1 28 28 28 784
969	233752 25 1003 1003 0.0000022784 0.0000022784 1 28 28 28 784
970	233777 56 1018 1026 0.00000255808 0.00000255808 2 1258 1258 2516 3165128
971	233833 50 1018 1026 0.00000255808 0.00000255808 2 1 2 3 5
972	233883 56 1019 1027 0.00000255808 0.00000255808 2 1250 1250 2500 3125000
973	233939 60 1019 1027 0.00000255808 0.00000255808 2 0 2.55808e-06 2.55808e-06 6.5437732864e-12
974	233999 50 1019 1027 0.00000255808 0.00000255808 2 0 0 0 0
975	234049 28 1020 1020 0.00000255808 0.00000255808 1 1258 1258 1258 1582564
976	234077 28 1022 1022 0.00000255808 0.00000255808 1 1278 1278 1278 1633284
977	234105 28 1022 1022 0.00000255808 0.00000255808 1 1278 1278 1278 1633284
978	234133 54 1047 1055 0.0000033792 0.0000033792 2 1258 1258 2516 3165128
979	234187 48 1047 1055 0.0000033792 0.0000033792 2 1 2 3 5
980	234235 54 1048 1056 0.0000033792 0.0000033792 2 1250 1250 2500 3125000
981	234289 57 1048 1056 0.0000033792 0.0000033792 2 0 3.3792e-06 3.3792e-06 1.141899264e-11
982	234346 48 1048 1056 0.0000033792 0.0000033792 2 0 0 0 0
983	234394 27 1049 1049 0.0000033792 0.0000033792 1 1258 1258 1258 1582564
984	234421 27 1051 1051 0.0000033792 0.0000033792 1 1278 1278 1278 1633284
985	234448 27 1051 1051 0.0000033792 0.0000033792 1 1278 1278 1278 1633284
986	234475 26 1068 1068 0.00000353984 0.00000353984 1 28 28 28 784
987	234501 83 1121 1152 0.00000380992 0.0000044224 3 1278 1278 3834 4899852
988	234584 28 1122 1122 0.00000380992 0.00000380992 1 1278 1278 1278 1633284
989	234612 28 1143 1143 0.00000391424 0.00000391424 1 1278 1278 1278 1633284
990	234640 28 1144 1144 0.00000391424 0.00000391424 1 1278 1278 1278 1633284
991	234668 28 1145 1145 0.00000391424 0.00000391424 1 1278 1278 1278 1633284
992	234696 84 1158 1178 0.00000464064 0.00000569344 3 1258 1258 3774 4747692
993	234780 75 1158 1178 0.00000464064 0.00000569344 3 1 3 6 14
994	234855 84 1159 1179 0.00000464064 0.00000569344 3 1250 1250 3750 4687500
995	234939 95 1159 1179 0.00000464064 0.00000569344 3 0 4.64064e-06 7.776e-06 3.13660219392e-11
996	235034 75 1159 1179 0.00000464064 0.00000569344 3 0 0 0 0
997	235109 28 1160 1160 0.00000464064 0.00000464064 1 1258 1258 1258 1582564
998	235137 28 1162 1162 0.00000464064 0.00000464064 1 1278 1278 1278 1633284
999	235165 28 1162 1162 0.00000464064 0.00000464064 1 1278 1278 1278 1633284
1000	235193 29 1172 1172 0.00000568384 0.00000568384 1 1278 1278 1278 1633284
81	235222 26 1243 1243 5.928446163889 5.928446163889 1 32 32 32 1024
84	235248 26 1253 1253 6.027633703779 6.027633703779 1 32 32 32 1024
89	235274 26 1263 1263 6.235636963975 6.235636963975 1 32 32 32 1024
501	235300 27 1244 1244 5.928446163889 5.928446163889 1 50 50 50 2500
502	235327 27 1244 1244 5.928446163889 5.928446163889 1 64 64 64 4096
503	235354 52 1244 1244 5.928446163889 5.928446163889 2 0 1 1 1
504	235406 27 1244 1244 5.928446163889 5.928446163889 1 64 64 64 4096
505	235433 26 1244 1244 5.928446163889 5.928446163889 1 0 0 0 0
516	235459 27 1254 1254 6.027633703779 6.027633703779 1 50 50 50 2500
517	235486 27 1254 1254 6.027633703779 6.027633703779 1 64 64 64 4096
518	235513 52 1254 1254 6.027633703779 6.027633703779 2 0 1 1 1
519	235565 27 1254 1254 6.027633703779 6.027633703779 1 64 64 64 4096
520	235592 26 1254 1254 6.027633703779 6.027633703779 1 0 0 0 0
541	235618 27 1264 1264 6.235636963975 6.235636963975 1 50 50 50 2500
542	235645 27 1264 1264 6.235636963975 6.235636963975 1 64 64 64 4096
543	235672 52 1264 1264 6.235636963975 6.235636963975 2 0 1 1 1
544	235724 27 1264 1264 6.235636963975 6.235636963975 1 64 64 64 4096
545	235751 26 1264 1264 6.235636963975 6.235636963975 1 0 0 0 0
884	235777 27 1236 1236 5.488135080643 5.488135080643 1 64 64 64 4096
885	235804 27 1245 1245 5.928446221489 5.928446221489 1 64 64 64 4096
886	235831 27 1245 1245 5.928446221489 5.928446221489 1 64 64 64 4096
887	235858 27 1246 1246 5.928446221489 5.928446221489 1 64 64 64 4096
894	235885 27 1255 1255 6.027633761379 6.027633761379 1 64 64 64 4096
895	235912 27 1255 1255 6.027633761379 6.027633761379 1 64 64 64 4096
896	235939 27 1256 1256 6.027633761379 6.027633761379 1 64 64 64 4096
946	235966 27 1237 1237 5.488135080643 5.488135080643 1 46 46 46 2116
947	235993 27 1247 1247 5.928446221489 5.928446221489 1 46 46 46 2116
950	236020 27 1257 1257 6.027633761379 6.027633761379 1 46 46 46 2116
